#------------------------------------------------------------------------------
#$Date: 2017-09-04 10:52:38 +0300 (Mon, 04 Sep 2017) $
#$Revision: 200148 $
#$URL: file:///home/coder/svn-repositories/cod/cif/4/00/28/4002838.cif $
#------------------------------------------------------------------------------
#
# This file is available in the Crystallography Open Database (COD),
# http://www.crystallography.net/
#
# All data on this site have been placed in the public domain by the
# contributors.
#
data_4002838
loop_
_publ_author_name
'Nuss, J\"urgen'
'Wedig, Ulrich'
'Xie, Wenjie'
'Yordanov, Petar'
'Bruin, Jan'
'H\"ubner, Ralph'
'Weidenkaff, Anke'
'Takagi, Hidenori'
_publ_section_title
;
 Phosphide--Tetrahedrite Ag6Ge10P12: Thermoelectric Performance of a
 Long-Forgotten Silver-Cluster Compound
;
_journal_issue                   16
_journal_name_full               'Chemistry of Materials'
_journal_page_first              6956
_journal_paper_doi               10.1021/acs.chemmater.7b02474
_journal_volume                  29
_journal_year                    2017
_chemical_absolute_configuration ad
_chemical_formula_moiety         'Ag6 Ge10 P12'
_chemical_formula_sum            'Ag6 Ge10 P12'
_chemical_formula_weight         1744.76
_space_group_crystal_system      cubic
_space_group_IT_number           217
_space_group_name_Hall           'I -4 2 3'
_space_group_name_H-M_alt        'I -4 3 m'
_symmetry_cell_setting           cubic
_symmetry_Int_Tables_number      217
_symmetry_space_group_name_Hall  'I -4 2 3'
_symmetry_space_group_name_H-M   'I -4 3 m'
_atom_sites_solution_primary     direct
_atom_sites_solution_secondary   difmap
_audit_creation_method           SHELXL-2014
_cell_angle_alpha                90
_cell_angle_beta                 90
_cell_angle_gamma                90
_cell_formula_units_Z            2
_cell_length_a                   10.320(2)
_cell_length_b                   10.320(2)
_cell_length_c                   10.320(2)
_cell_measurement_reflns_used    2769
_cell_measurement_temperature    500.0(2)
_cell_measurement_theta_max      31.03
_cell_measurement_theta_min      2.79
_cell_volume                     1099.1(4)
_computing_cell_refinement       'SAINT32 (Bruker AXS)'
_computing_data_collection       'Bruker Suite (Bruker AXS)'
_computing_data_reduction        'SAINT32 (Bruker AXS)'
_computing_structure_refinement  'SHELXL-2014 (Sheldrick, 2014)'
_computing_structure_solution    'SHELXL-2014 (Sheldrick, 2014)'
_diffrn_ambient_temperature      500.0(2)
_diffrn_measured_fraction_theta_full 1.000
_diffrn_measured_fraction_theta_max 0.993
_diffrn_measurement_device_type  'SMART APEX, Bruker AXS'
_diffrn_measurement_method       \wscan
_diffrn_radiation_monochromator  graphite
_diffrn_radiation_probe          x-ray
_diffrn_radiation_type           MoK\a
_diffrn_radiation_wavelength     0.71073
_diffrn_reflns_av_R_equivalents  0.0473
_diffrn_reflns_av_unetI/netI     0.0215
_diffrn_reflns_Laue_measured_fraction_full 1.000
_diffrn_reflns_Laue_measured_fraction_max 0.993
_diffrn_reflns_limit_h_max       16
_diffrn_reflns_limit_h_min       -16
_diffrn_reflns_limit_k_max       16
_diffrn_reflns_limit_k_min       -16
_diffrn_reflns_limit_l_max       16
_diffrn_reflns_limit_l_min       -16
_diffrn_reflns_number            9006
_diffrn_reflns_point_group_measured_fraction_full 1.000
_diffrn_reflns_point_group_measured_fraction_max 0.988
_diffrn_reflns_theta_full        25.242
_diffrn_reflns_theta_max         35.328
_diffrn_reflns_theta_min         2.791
_diffrn_source                   'fine-focus sealed tube'
_exptl_absorpt_coefficient_mu    19.521
_exptl_absorpt_correction_T_max  0.273
_exptl_absorpt_correction_T_min  0.164
_exptl_absorpt_correction_type   multi-scan
_exptl_absorpt_process_details
;
semi empirical absorption correction with SADABS,
G.M. Sheldrick, SADABS, Version 2012/1, University of G\"ottingen. Germany. 
;
_exptl_crystal_colour            'silver grey'
_exptl_crystal_density_diffrn    5.272
_exptl_crystal_description       block
_exptl_crystal_F_000             1564
_exptl_crystal_size_max          0.120
_exptl_crystal_size_mid          0.060
_exptl_crystal_size_min          0.030
_refine_diff_density_max         0.639
_refine_diff_density_min         -0.645
_refine_diff_density_rms         0.161
_refine_ls_abs_structure_details
;
 Flack x determined using 197 quotients [(I+)-(I-)]/[(I+)+(I-)]
 (Parsons and Flack (2004), Acta Cryst. A60, s61).
;
_refine_ls_abs_structure_Flack   0.011(10)
_refine_ls_extinction_coef       0.00131(12)
_refine_ls_extinction_expression Fc^*^=kFc[1+0.001xFc^2^\l^3^/sin(2\q)]^-1/4^
_refine_ls_extinction_method     SHELXL
_refine_ls_goodness_of_fit_ref   1.053
_refine_ls_hydrogen_treatment    undef
_refine_ls_matrix_type           full
_refine_ls_number_parameters     17
_refine_ls_number_reflns         494
_refine_ls_number_restraints     0
_refine_ls_restrained_S_all      1.053
_refine_ls_R_factor_all          0.0238
_refine_ls_R_factor_gt           0.0213
_refine_ls_shift/su_max          0.000
_refine_ls_shift/su_mean         0.000
_refine_ls_structure_factor_coef Fsqd
_refine_ls_weighting_details
'w=1/[\s^2^(Fo^2^)+(0.0135P)^2^+6.4950P] where P=(Fo^2^+2Fc^2^)/3'
_refine_ls_weighting_scheme      calc
_refine_ls_wR_factor_gt          0.0433
_refine_ls_wR_factor_ref         0.0452
_reflns_Friedel_coverage         0.764
_reflns_Friedel_fraction_full    1.000
_reflns_Friedel_fraction_max     0.982
_reflns_number_gt                470
_reflns_number_total             494
_reflns_threshold_expression     'I > 2\s(I)'
_cod_data_source_file            cm7b02474_si_006.cif
_cod_data_source_block           Ag6Ge10P12_500K
_cod_original_cell_volume        1099.1(7)
_cod_database_code               4002838
_shelx_space_group_comment
;
The symmetry employed for this shelxl refinement is uniquely defined
by the following loop, which should always be used as a source of
symmetry information in preference to the above space-group names.
They are only intended as comments.
;
_shelx_estimated_absorpt_t_min   0.203
_shelx_estimated_absorpt_t_max   0.592
_shelxl_version_number           2013-4
_shelx_res_file
;
TITL nus273_0m in I-43m
CELL 0.71073  10.32010  10.32010  10.32010  90.0000  90.0000  90.0000
ZERR    2.00   0.00220   0.00220   0.00220   0.0000   0.0000   0.0000
LATT -2
SYMM -X, -Y, Z
SYMM -X, Y, -Z
SYMM X, -Y, -Z
SYMM Z, X, Y
SYMM Z, -X, -Y
SYMM -Z, -X, Y
SYMM -Z, X, -Y
SYMM Y, Z, X
SYMM -Y, Z, -X
SYMM Y, -Z, -X
SYMM -Y, -Z, X
SYMM Y, X, Z
SYMM -Y, -X, Z
SYMM Y, -X, -Z
SYMM -Y, X, -Z
SYMM X, Z, Y
SYMM -X, Z, -Y
SYMM -X, -Z, Y
SYMM X, -Z, -Y
SYMM Z, Y, X
SYMM Z, -Y, -X
SYMM -Z, Y, -X
SYMM -Z, -Y, X
SFAC P GE AG
UNIT 24 20 12
TEMP 227.000
SIZE 0.03 0.06 0.12

ACTA
L.S. 4
BOND
FMAP 2
PLAN 20
WGHT    0.013500    6.495000
EXTI    0.001310
FVAR       0.14798
AG    3    0.195574    0.000000    0.000000    10.25000    0.02252    0.04529 =
         0.04529   -0.02020    0.00000    0.00000
GE1   2    0.288060    0.288060    0.288060    10.16667    0.01873    0.01873 =
         0.01873   -0.00070   -0.00070   -0.00070
GE2   2    0.250000    0.500000    0.000000    10.25000    0.01644    0.01438 =
         0.01438    0.00000    0.00000    0.00000
P     1    0.128349    0.128349    0.360020    10.50000    0.01461    0.01461 =
         0.01535   -0.00075   -0.00075    0.00184
HKLF 4

REM  nus273_0m in I-43m
REM R1 =  0.0213 for     470 Fo > 4sig(Fo)  and  0.0238 for all     494 data
REM     17 parameters refined using      0 restraints

END

WGHT      0.0132      4.6316

REM Highest difference peak  0.639,  deepest hole -0.645,  1-sigma level  0.161
Q1    1   0.0385  0.0149  0.0385  10.50000  0.05    0.64
Q2    1   0.0304 -0.0304  0.0304  10.16667  0.05    0.60
Q3    1   0.0000  0.0000  0.0000  10.04167  0.05    0.59
Q4    1   0.0478  0.0478  0.4992  10.50000  0.05    0.58
Q5    1   0.0000  0.0000  0.5000  10.12500  0.05    0.57
Q6    1   0.1357  0.2892  0.2892  10.50000  0.05    0.53
Q7    1   0.2171  0.2844  0.2463  11.00000  0.05    0.49
Q8    1   0.0002  0.2468  0.2468  10.50000  0.05    0.48
Q9    1   0.1994  0.1994  0.1994  10.16667  0.05    0.48
Q10   1   0.0244  0.0244  0.4367  10.50000  0.05    0.45
Q11   1   0.4603  0.2813  0.2813  10.50000  0.05    0.45
Q12   1   0.0799  0.0799  0.5079  10.50000  0.05    0.43
Q13   1   0.1668  0.0298  0.1668  10.50000  0.05    0.41
Q14   1   0.1619  0.0291  0.0291  10.50000  0.05    0.40
Q15   1   0.1732  0.0393  0.0044  11.00000  0.05    0.40
Q16   1   0.0780  0.5000  0.0000  10.50000  0.05    0.38
Q17   1   0.1617 -0.0141  0.1617  10.50000  0.05    0.38
Q18   1   0.2469  0.3040  0.4617  11.00000  0.05    0.38
Q19   1   0.2062  0.2062  0.4975  10.50000  0.05    0.38
Q20   1   0.2060  0.2291  0.2981  11.00000  0.05    0.37
;
_shelx_res_checksum              81207
_shelx_hkl_file
;
  -1  -1   0 445.365 18.3782   1
  -1  -1   0 441.669 18.4598   3
  -1   0  -1 434.518 18.8942   1
  -1   0  -1 416.605 18.3491   2
  -1   0  -1 361.164 18.4142   3
  -1   0   1 434.785 20.2195   1
  -1   1   0 454.169 18.9792   1
  -1   1   0 440.198 17.9640   2
   0  -1  -1 428.410 18.7094   2
   0  -1  -1 436.435 17.9958   3
   0  -1   1 422.960 17.8566   3
   0   1  -1 437.485 18.6402   1
   0   1  -1 429.062 18.6869   2
   0   1   1 432.216 18.6715   1
   1   0  -1 423.151 19.0150   2
   1   0  -1 436.972 18.6288   3
   1   1   0 453.917 18.5199   2
  -2   0   0 147.603 8.24303   1
  -2   0   0 144.983 8.72758   3
   0  -2   0 161.582 8.11770   3
   0   0  -2 149.595 8.92867   2
   0   0   2 150.980 8.27855   1
   0   2   0 146.035 6.80766   1
   0   2   0 145.447 8.01550   2
   2   0   0 144.576 6.66676   2
  -2  -1  -1 177.844 8.95776   1
  -2  -1  -1 191.113 8.73551   2
  -2  -1  -1 187.168 9.53737   3
  -2  -1   1 147.043 9.64726   1
  -2  -1   1 160.111 8.93391   3
  -2   1  -1 160.956 9.28170   1
  -2   1  -1 182.780 8.52440   2
  -2   1   1 188.893 10.3995   1
  -1  -2  -1 185.715 8.11157   1
  -1  -2  -1 185.013 9.33814   2
  -1  -2   1 167.156 8.58843   1
  -1  -2   1 165.989 8.97732   3
  -1  -1  -2 169.661 8.92357   1
  -1  -1  -2 188.151 9.54969   2
  -1  -1  -2 190.096 8.72656   3
  -1  -1   2 171.886 9.50727   1
  -1  -1   2 161.299 8.07071   3
  -1   1  -2 165.870 9.20479   1
  -1   1  -2 169.198 9.93773   2
  -1   1   2 192.852 10.3554   1
  -1   2  -1 180.076 8.91566   1
  -1   2  -1 169.302 8.79280   2
  -1   2   1 182.987 9.66008   1
   1  -2  -1 162.852 8.83858   2
   1  -2  -1 172.342 8.96085   3
   1  -2   1 178.026 9.02997   3
   1  -1  -2 153.979 9.34815   2
   1  -1  -2 170.792 8.18633   3
   1  -1   2 186.981 8.44321   3
   1   1  -2 190.619 9.95887   2
   1   2  -1 190.484 9.35307   2
   2  -1  -1 168.734 8.45031   2
   2  -1  -1 175.921 9.36826   3
  -2  -2   0 5.95616 1.74870   1
  -2  -2   0 0.59115 2.33584   3
  -2   0  -2 0.93341 2.20781   1
  -2   0  -2 6.05809 2.43055   2
  -2   0  -2 0.44900 2.48081   3
  -2   0   2 8.91545 4.15862   1
  -2   2   0 0.79773 2.30457   1
  -2   2   0 1.85249 1.75871   2
   0  -2  -2 -0.4496 2.21102   2
   0  -2  -2 1.22617 2.03065   3
   0  -2   2 1.60014 1.98499   3
   0   2  -2 3.07628 2.22106   1
   0   2  -2 4.91614 2.79954   2
   0   2   2 4.05337 2.33441   1
   2  -2   0 4.42039 2.66283   3
   2   0  -2 5.90777 3.23438   2
   2   0  -2 7.57591 2.84215   3
   2   2   0 3.40484 2.42610   2
  -2  -2  -2 9806.03 372.298   1
  -2  -2  -2 9893.97 369.238   2
  -2  -2  -2 8208.17 355.732   3
  -2  -2   2 7979.96 369.828   1
  -2  -2   2 9226.65 355.565   3
  -2   2  -2 9999.99 369.685   1
  -2   2   2 7458.08 371.127   1
   2  -2  -2 8937.03 361.926   2
   2  -2  -2 9095.46 355.509   3
   2  -2   2 8617.55 355.664   3
   2   2  -2 9748.70 362.625   2
  -3   0  -1 11.6871 2.47886   1
  -3   0  -1 12.9807 1.48621   2
  -3   0   1 13.3143 3.14377   1
  -1  -3   0 11.5143 2.61287   3
  -1   3   0 11.4323 1.83835   1
  -1   3   0 12.5041 2.36813   2
   0  -1  -3 12.1593 2.71522   2
   0  -1  -3 12.7784 1.61829   3
   0  -1   3 10.1527 2.21000   1
   0  -1   3 11.0145 1.09047   3
   0   1  -3 12.3112 3.15059   2
   0   1   3 9.26336 2.23893   1
   1  -3   0 10.0675 2.19799   3
   1   3   0 13.1551 2.66860   2
   3   0  -1 10.3760 1.88199   2
   3   0  -1 9.86561 2.91374   3
   3   0   1 8.23278 3.04579   3
  -3  -1   0 12.3160 2.37231   1
  -3  -1   0 13.3316 2.81747   3
  -3   1   0 6.16468 1.90128   1
  -1   0  -3 13.0203 2.43104   1
  -1   0  -3 14.9543 3.09106   2
  -1   0   3 14.7253 2.96481   1
   0  -3  -1 17.3078 2.93048   2
   0  -3  -1 11.5524 2.32152   3
   0  -3   1 9.15698 2.07643   3
   0   3  -1 11.1288 1.55256   1
   0   3  -1 10.6947 2.27468   2
   0   3   1 14.9240 2.10108   1
   1   0  -3 13.8316 3.38038   2
   1   0  -3 11.3288 1.06460   3
   1   0   3 10.9787 2.04820   3
   3  -1   0 9.14310 2.78839   3
   3   1   0 13.2801 1.91481   2
  -3  -1  -2 272.274 13.0974   1
  -3  -1  -2 261.857 12.2213   2
  -3  -1  -2 290.602 14.1843   3
  -3   2  -1 226.230 13.2152   1
  -3   2  -1 237.947 11.2863   2
   3  -2  -1 224.326 11.3565   2
   3  -2  -1 223.798 13.0187   3
  -3   1   2 226.894 14.8267   1
  -2  -3  -1 261.925 11.1987   1
  -2  -3  -1 251.604 13.3674   3
   1  -3  -2 218.946 12.7198   2
   1  -3  -2 223.157 12.4436   3
  -2   1  -3 215.434 13.2683   2
   3   1  -2 265.992 12.9603   2
  -2   3   1 267.513 13.1621   1
  -1  -2  -3 285.066 12.4736   3
   2  -1  -3 236.911 11.6428   3
  -1  -3   2 239.501 12.5464   3
  -1   3  -2 228.160 12.3302   1
  -1   3  -2 233.911 12.7430   2
  -1   2   3 262.776 14.0826   1
  -3  -2   1 240.637 13.1067   1
  -3  -2   1 214.483 12.6533   3
   1  -2   3 264.239 11.7780   3
   1   2  -3 268.502 14.1016   2
   1   3   2 228.360 11.7090   1
   2  -1  -3 222.150 13.6838   2
  -2   1  -3 216.490 12.9532   1
   2  -3   1 277.072 13.2137   3
   2   3  -1 271.969 13.2858   2
  -2  -1   3 230.311 11.5553   3
  -1  -3   2 226.568 12.0430   1
   3  -1   2 280.358 14.1705   3
  -2  -1   3 227.209 13.8539   1
   3   2   1 235.534 12.3481   2
   2  -3  -1 219.021 12.6317   3
   1  -2  -3 207.811 13.1050   2
   1  -2  -3 231.843 11.6855   3
  -3  -1   2 222.715 14.7143   1
  -3  -1   2 222.522 12.4835   3
  -3   2   1 277.117 14.0965   1
  -2  -1  -3 261.390 13.0388   1
  -2  -1  -3 279.649 13.4784   2
  -2  -1  -3 295.756 13.3673   3
  -2   3  -1 216.787 11.8508   2
   2   3   1 228.884 12.9494   2
  -3  -2  -1 274.120 13.6185   3
  -2   3  -1 225.972 12.5538   1
  -2   1   3 265.017 15.4412   1
  -1  -3  -2 252.588 13.1774   2
  -1  -3  -2 264.635 13.1206   3
   3  -1  -2 228.212 12.6419   2
  -1  -2   3 232.081 11.5192   3
  -1   2  -3 212.890 12.6689   1
  -1   2  -3 235.156 13.9465   2
  -1   3   2 255.683 14.7435   1
  -2  -3   1 206.956 12.1008   1
  -2  -3   1 219.044 12.7952   3
   1  -3   2 286.968 12.9156   3
   1   3  -2 267.143 13.4312   2
   1   2   3 237.941 12.6480   1
   2  -3  -1 225.289 12.1207   2
  -1  -2   3 223.138 12.9260   1
   2  -1   3 269.426 12.4471   3
   2   1  -3 268.313 14.2259   2
  -3   1  -2 217.899 13.0594   1
  -3   1  -2 249.583 11.9080   2
   3  -2   1 265.781 13.6280   3
   3   2  -1 264.290 12.6595   2
  -3  -2  -1 271.190 12.5728   1
  -3  -3   0 669.008 28.6822   1
  -3  -3   0 651.688 29.9377   3
  -3   0  -3 641.052 30.2986   1
  -3   0  -3 643.441 29.1485   2
  -3   0   3 671.104 34.1715   1
  -3   3   0 656.751 30.3825   1
  -3   3   0 650.093 28.0318   2
   0  -3  -3 633.190 30.3548   2
   0  -3  -3 658.581 28.7563   3
   0  -3   3 630.800 29.6678   1
   0  -3   3 629.739 28.1954   3
   0   3  -3 618.210 30.3057   2
   0   3   3 638.417 29.7649   1
   3  -3   0 672.362 29.9874   3
   3   0  -3 652.638 30.6443   2
   3   0  -3 674.849 29.3735   3
   3   0   3 621.432 31.2856   3
   3   3   0 650.782 29.5640   2
  -3  -3  -2 1660.68 71.2652   1
  -3  -3  -2 1657.30 71.2812   2
  -3  -3  -2 1607.77 71.0141   3
  -3  -3   2 1680.95 74.0409   1
  -3  -3   2 1733.87 70.7810   3
  -3  -2  -3 1654.13 72.2559   1
  -3  -2  -3 1599.93 71.2663   2
  -3  -2  -3 1642.74 70.9322   3
  -3  -2   3 1713.45 75.8341   1
  -3  -2   3 1737.73 69.9182   3
  -3   2  -3 1777.74 73.5215   1
  -3   2  -3 1583.24 71.9797   2
  -3   2   3 1756.36 77.2823   1
  -3   3  -2 1761.77 73.2834   1
  -3   3  -2 1662.22 70.7957   2
  -3   3   2 1596.81 74.6843   1
  -2  -3  -3 1730.37 71.7234   1
  -2  -3  -3 1687.41 72.0957   2
  -2  -3  -3 1622.46 70.4520   3
  -2  -3   3 1743.04 73.1565   1
  -2  -3   3 1759.77 70.0108   3
  -2   3  -3 1739.25 72.9789   1
  -2   3  -3 1626.72 72.1446   2
  -2   3   3 1623.88 76.2887   1
   2  -3  -3 1713.44 72.2398   2
   2  -3  -3 1716.57 69.9772   3
   2  -3   3 1658.45 69.8563   3
   2   3  -3 1670.35 72.4176   2
   3  -3  -2 1721.33 70.9196   2
   3  -3  -2 1742.40 70.8227   3
   3  -3   2 1647.06 70.6752   3
   3  -2  -3 1777.39 72.3817   2
   3  -2  -3 1745.65 70.2628   3
   3  -2   3 1655.11 70.4055   3
   3   2  -3 1632.79 72.1844   2
   3   3  -2 1719.30 71.8789   2
  -4   0   0 4199.34 173.515   1
   0  -4   0 4378.35 167.286   3
   0   0  -4 3727.74 171.536   2
   0   0   4 4335.28 173.708   1
   0   4   0 4357.71 170.031   1
   0   4   0 4171.41 169.951   2
   4   0   0 3970.54 166.703   2
   4   0   0 4041.78 170.064   3
   1   4   1 587.463 27.0947   2
   4  -1  -1 618.969 24.4777   2
   4  -1  -1 598.797 28.0078   3
   4  -1   1 511.052 27.8572   3
   4   1  -1 515.004 24.8425   2
   4   1   1 596.216 24.8133   2
   1  -1   4 529.851 23.6881   3
   1   1  -4 504.954 28.3626   2
   1   1   4 525.602 26.9281   1
   1   4  -1 533.142 26.7111   2
   1   4   1 611.906 23.8955   1
   1  -4  -1 591.123 26.5356   3
   1  -4   1 538.361 26.2918   3
   1  -1  -4 593.301 28.6211   2
   1  -1  -4 598.794 23.5717   3
  -1   4   1 534.028 25.4110   1
  -1   4   1 537.903 26.4126   2
  -4  -1  -1 538.933 26.8310   1
  -4  -1  -1 549.279 27.5946   3
  -4  -1   1 603.059 27.7352   1
  -4  -1   1 590.764 27.4278   3
  -4   1  -1 624.847 28.0363   1
  -4   1   1 530.658 27.9656   1
  -1  -4  -1 517.961 26.4182   3
  -1  -4   1 598.169 24.4632   1
  -1  -4   1 582.921 26.5782   3
  -1  -1  -4 514.232 27.4073   2
  -1  -1  -4 566.582 24.7323   3
  -1  -1   4 590.441 27.7504   1
  -1  -1   4 582.735 23.2147   3
  -1   1  -4 560.792 26.9608   1
  -1   1  -4 540.878 28.2382   2
  -1   1   4 524.160 27.5382   1
  -1   4  -1 580.211 25.4022   1
  -1   4  -1 608.294 26.5967   2
   4   0  -2 120.480 8.86363   3
   4   0   2 111.736 9.94180   3
   0   2   4 113.264 7.96024   1
   2  -4   0 102.637 7.63707   3
   2   4   0 106.255 7.80333   2
   4   0  -2 116.399 7.54581   2
  -2   4   0 109.015 7.18784   2
   0  -2  -4 98.9466 8.24104   2
   0  -2  -4 117.327 6.42373   3
   0  -2   4 106.141 7.70513   1
   0  -2   4 106.498 5.80222   3
  -4   0  -2 104.887 7.71535   1
  -4   0  -2 118.558 6.17190   2
  -4   0   2 100.552 9.02273   1
  -2  -4   0 106.165 5.01721   1
  -2  -4   0 112.256 8.19720   3
  -2   4   0 107.311 6.99354   1
   0   4  -2 103.012 7.64172   2
   0   4   2 114.458 7.89158   1
   2   0  -4 112.609 9.16258   2
   2   0  -4 110.098 5.97233   3
   2   0   4 122.193 7.71713   3
   4  -2   0 87.1623 7.86282   3
   4   2   0 110.050 6.81862   2
   0  -4  -2 100.496 7.57645   2
   0  -4  -2 110.530 7.71719   3
   0  -4   2 113.322 7.52318   3
   0   4  -2 109.044 6.45327   1
  -4   2   0 100.613 7.97550   1
  -4   2   0 107.017 4.97865   2
  -2   0  -4 100.466 7.60523   1
  -2   0  -4 101.784 8.04419   2
  -2   0   4 99.2924 8.36868   1
  -4  -2   0 108.255 8.03531   3
  -4  -2   0 110.859 7.38415   1
  -2  -4   2 701.205 31.9103   3
  -2  -2  -4 674.824 31.9316   1
   2  -4  -2 686.449 31.7182   3
  -2  -2  -4 703.736 31.1447   3
  -2  -2   4 700.708 33.5008   1
  -2  -2   4 693.612 29.7558   3
  -4   2  -2 704.117 30.1473   2
  -4   2   2 720.252 35.4791   1
  -2  -4  -2 690.609 32.2183   2
  -2  -4  -2 701.985 32.3427   3
  -2  -4   2 701.903 31.7011   1
  -4  -2  -2 682.241 32.6370   3
  -4  -2   2 653.969 33.8702   1
  -4  -2   2 664.036 31.7065   3
  -4   2  -2 674.419 33.0387   1
  -4  -2  -2 708.325 32.0382   1
  -4  -2  -2 692.757 30.8619   2
  -2  -2  -4 660.596 32.4634   2
   2  -4  -2 665.470 31.6361   2
  -2   2  -4 680.456 34.1122   2
  -2   2   4 682.173 34.9002   1
  -2   4  -2 684.293 31.8042   1
  -2   4  -2 686.200 31.5805   2
  -2   4   2 690.954 33.1929   1
   4  -2  -2 711.658 32.5822   3
   4  -2   2 703.409 32.9462   3
   4   2  -2 704.007 31.6049   2
  -2   2  -4 714.265 33.0586   1
   2  -4   2 681.897 31.6016   3
   2  -2  -4 715.219 33.7432   2
   2  -2  -4 692.303 29.9478   3
   2  -2   4 700.853 30.2157   3
   2   4  -2 706.748 32.6315   2
   2   4   2 674.058 30.1616   1
   4  -2  -2 706.355 30.8423   2
   4  -1   3 888.023 43.4673   3
   4   1  -3 935.461 43.0332   2
   3   4  -1 936.980 42.9750   2
  -4  -3   1 1008.01 43.1361   1
  -4  -3   1 985.737 43.1037   3
   1  -4  -3 936.160 43.2415   2
  -1   4  -3 957.359 43.3252   2
   1  -3   4 905.709 40.4920   3
  -3  -4  -1 934.674 40.7412   1
  -3  -4  -1 926.420 43.1004   3
   3  -4   1 932.393 42.5632   3
  -4  -1  -3 920.930 43.4096   1
  -4  -1  -3 941.474 41.7164   2
   4   3   1 976.673 42.4509   2
  -3  -1   4 971.071 41.1532   3
  -1   3   4 919.727 44.4123   1
  -3   1  -4 1008.09 43.4857   2
   3  -1  -4 965.754 41.0326   3
  -1  -4   3 1003.29 41.9237   3
   1   4   3 963.209 42.0646   1
   3  -1  -4 937.464 44.3358   2
  -3   4   1 921.842 43.4265   1
  -3   4   1 981.521 41.8891   2
  -1  -3  -4 954.788 43.9900   2
  -1  -3  -4 941.169 41.3884   3
  -3  -1   4 951.700 46.2674   1
  -4   1   3 944.609 46.9954   1
  -4  -1  -3 969.789 44.4912   3
  -1  -4   3 999.130 42.6557   1
  -4   3  -1 969.254 40.3659   2
  -1   4  -3 1002.49 42.8958   1
   4  -3  -1 984.071 43.4896   3
   1  -4  -3 991.280 42.1484   3
  -4   3  -1 971.289 44.2498   1
  -3   1  -4 984.022 44.2030   1
  -4  -3  -1 963.876 42.2976   1
   3  -4  -1 938.009 42.6611   3
   3   4   1 980.104 43.1720   2
  -1  -3   4 977.411 40.6236   3
   1   3   4 992.401 43.3731   1
  -3  -4   1 988.787 43.1582   3
  -4   3   1 922.979 44.3964   1
  -3  -1  -4 910.751 43.3504   1
  -3  -1  -4 965.991 43.0491   2
  -3  -1  -4 892.794 43.0714   3
  -1  -3   4 957.563 43.5451   1
  -1   3  -4 1022.60 45.1268   2
  -4  -3  -1 873.499 42.7652   3
   1  -3  -4 981.949 44.1448   2
  -3   1   4 887.624 47.1243   1
  -1  -4  -3 875.159 43.0667   2
  -1  -4  -3 938.146 42.3080   3
  -4  -1   3 1037.14 47.5707   1
  -4  -1   3 939.569 42.4736   3
  -4   1  -3 978.289 44.2542   1
  -4   1  -3 1009.02 41.4496   2
  -1   4   3 934.793 45.6337   1
   4  -1  -3 932.065 42.4957   3
   4  -1  -3 962.054 43.1508   2
   1  -4   3 967.823 41.8545   3
   1   4  -3 932.074 43.3161   2
  -3   4  -1 969.695 43.3325   1
  -3   4  -1 990.588 41.5548   2
  -3  -4   1 1016.01 41.8320   1
   3  -1   4 966.020 41.9950   3
   3   1  -4 949.958 44.6807   2
   1  -3  -4 981.859 41.0749   3
   4  -3   1 955.129 43.2801   3
   4   3  -1 933.973 42.1973   2
  -1   3  -4 964.909 43.3248   1
  -4  -3  -3 666.584 30.5877   1
  -4  -3  -3 674.385 30.7774   2
  -4  -3  -3 639.707 31.4759   3
  -4  -3   3 682.369 33.8823   1
  -4  -3   3 640.725 30.5387   3
  -4   3  -3 631.934 31.9909   1
  -4   3  -3 650.944 31.0072   2
  -4   3   3 616.918 34.5916   1
  -3  -4  -3 652.252 29.6295   1
  -3  -4  -3 681.251 31.5198   2
  -3  -4  -3 658.750 31.4854   3
  -3  -4   3 677.057 32.8088   1
  -3  -4   3 673.857 30.8243   3
  -3  -3  -4 666.995 30.6914   1
  -3  -3  -4 668.960 31.7118   2
  -3  -3  -4 649.159 30.9763   3
  -3  -3   4 666.476 33.1299   1
  -3  -3   4 627.595 29.5575   3
  -3   3  -4 648.808 31.9174   1
  -3   3  -4 604.815 32.3470   2
  -3   3   4 672.812 35.8290   1
  -3   4  -3 636.947 31.3578   1
  -3   4  -3 653.585 31.2572   2
  -3   4   3 562.525 33.3285   1
   3  -4  -3 637.698 31.0860   2
   3  -4  -3 635.012 30.6737   3
   3  -4   3 662.029 30.7141   3
   3  -3  -4 688.941 32.4709   2
   3  -3  -4 656.456 30.0019   3
   3  -3   4 663.891 30.0925   3
   3   4  -3 672.790 31.8401   2
   4  -3  -3 654.901 30.8509   2
   4  -3  -3 662.468 31.2008   3
   4  -3   3 675.868 31.3575   3
   4   3  -3 688.264 31.7809   2
  -4  -4   0 7831.64 307.204   1
  -4  -4   0 7378.80 299.559   3
  -4   0  -4 8006.10 310.106   1
  -4   0  -4 7343.63 302.695   2
  -4   0   4 7094.93 314.144   1
  -4   4   0 7577.73 309.711   1
  -4   4   0 7337.12 301.056   2
   0  -4  -4 7491.76 304.629   2
   0  -4  -4 7383.19 297.722   3
   0  -4   4 7949.66 308.962   1
   0  -4   4 7780.44 297.060   3
   0   4  -4 6903.74 304.431   2
   0   4   4 6644.36 308.677   1
   4  -4   0 7533.22 299.542   3
   4   0  -4 7436.02 304.720   2
   4   0  -4 7503.64 297.916   3
   4   4   0 7768.15 303.565   2
  -4  -4  -2 51.8573 4.33795   1
  -4  -4  -2 48.7559 7.10124   3
  -4  -4   2 71.5153 6.11478   1
  -4  -4   2 64.0142 6.34613   3
  -4  -2  -4 49.2697 5.19542   1
  -4  -2  -4 51.7614 6.42114   2
  -4  -2  -4 44.0705 6.72634   3
  -4  -2   4 59.6159 9.11080   1
  -4  -2   4 56.2456 5.26741   3
  -4   2  -4 58.3645 6.23610   1
  -4   2  -4 63.0217 5.78354   2
  -4   2   4 50.4340 9.05925   1
  -4   4  -2 53.6871 5.75293   1
  -4   4  -2 62.9743 5.08580   2
  -4   4   2 45.3532 6.96605   1
  -2  -4  -4 58.4927 7.27112   2
  -2  -4  -4 50.3243 6.61451   3
  -2  -4   4 63.6340 5.78472   1
  -2  -4   4 65.5577 5.50450   3
  -2   4  -4 65.4201 6.02365   1
  -2   4  -4 62.6942 7.97170   2
  -2   4   4 55.0880 9.06842   1
   2  -4  -4 52.9544 7.07095   2
   2  -4  -4 52.6841 5.20790   3
   2  -4   4 48.2727 4.97883   3
   2   4  -4 57.3151 8.20282   2
   2   4   4 61.3569 5.16940   1
   4  -4  -2 64.6441 5.23552   2
   4  -4  -2 61.1371 6.24303   3
   4  -4   2 40.3901 6.24173   3
   4  -2  -4 58.5389 7.86112   2
   4  -2  -4 56.0015 5.44244   3
   4  -2   4 54.5958 6.92616   3
   4   2  -4 45.7805 7.13834   2
   4   4  -2 55.5057 5.77369   2
   4   4   2 61.4983 5.99032   2
  -4  -4  -4 749.281 33.1838   1
  -4  -4  -4 747.546 34.4723   2
  -4  -4  -4 779.001 35.0762   3
  -4  -4   4 600.406 35.8628   1
  -4  -4   4 662.961 32.9516   3
  -4   4  -4 636.830 34.3203   1
  -4   4  -4 625.555 34.1978   2
  -4   4   4 748.412 38.6841   1
   4  -4  -4 705.232 34.6571   2
   4  -4  -4 667.977 33.4675   3
   4  -4   4 750.391 33.7140   3
   4   4  -4 792.692 35.8404   2
  -5   0  -1 1155.04 51.9907   1
  -5   0   1 1105.94 52.5488   1
  -1  -5   0 1159.38 50.4845   3
  -1   5   0 1160.43 48.8087   1
  -1   5   0 1145.37 50.4576   2
   0  -1  -5 1148.01 52.8285   2
   0  -1  -5 1180.55 46.3381   3
   0  -1   5 1119.69 51.8084   1
   0   1  -5 1117.89 53.1648   2
   0   1   5 1157.09 52.2066   1
   1  -5   0 1131.93 50.1287   3
   1   5   0 1225.34 51.3528   2
   5   0  -1 1148.54 48.0300   2
   5   0  -1 1152.85 52.5733   3
   5   0   1 1152.67 46.8235   2
   5   0   1 1163.97 53.6933   3
   0   5  -1 1149.13 50.7491   2
   0   5   1 1186.36 47.9526   1
   0   5   1 1145.26 50.8084   2
   1   0   5 1106.51 51.7757   1
   1   0   5 1151.49 46.3188   3
   5  -1   0 1167.93 52.6088   3
   5   1   0 1155.96 47.8191   2
  -1   0   5 1143.47 52.4203   1
   0  -5  -1 1113.49 50.1662   3
   0  -5   1 1114.42 49.8628   3
   0   5  -1 1164.70 48.1875   1
  -5  -1   0 1123.63 51.7426   3
  -5   1   0 1132.89 52.2404   1
  -1   0  -5 1050.40 52.1420   2
  -5  -1   0 1094.61 51.4724   1
  -1  -5   2 498.175 24.5828   3
  -1   5  -2 492.391 23.2771   1
  -1   5  -2 520.777 24.9581   2
  -1  -5   2 504.455 22.7113   1
  -2   1  -5 513.973 25.5198   1
  -2   1  -5 521.034 26.8434   2
  -5   1   2 514.122 27.9165   1
  -1   2   5 488.548 26.0392   1
   5  -2  -1 520.329 21.3127   2
   1  -5  -2 503.804 24.8244   3
  -2  -1   5 513.801 26.6082   1
   5  -2  -1 480.508 25.9764   3
   2   5  -1 497.799 25.3931   2
  -1  -2  -5 510.289 22.7991   3
   5   2   1 513.006 23.1620   2
  -5  -2   1 491.760 25.2655   3
  -5   2  -1 511.600 26.0709   1
   5   1  -2 494.174 23.5222   2
  -5  -1  -2 494.401 25.2493   1
  -5  -1  -2 507.388 27.1327   3
   2  -1  -5 512.538 21.4373   3
   1  -2   5 509.269 21.7389   3
   1   2  -5 501.129 27.4245   2
   2  -1  -5 510.892 27.3090   2
   5  -1   2 466.782 26.7605   3
  -2  -5  -1 474.279 25.1066   3
   2  -5   1 453.403 24.4378   3
  -5  -2   1 553.409 26.0103   1
   1  -5  -2 521.437 24.9808   2
   1   5   2 464.859 23.1748   1
  -2   5   1 468.408 23.6369   1
  -2   5   1 465.698 24.1395   2
  -1  -2  -5 500.235 26.2763   2
   1   5   2 510.780 25.5511   2
  -2  -5   1 510.021 21.8029   1
  -5  -1   2 532.006 27.6855   1
  -2  -5   1 518.468 25.2777   3
  -1   2  -5 507.512 27.7051   2
  -2  -1  -5 472.654 24.8949   1
  -2  -1  -5 472.230 25.6187   2
   1  -2  -5 515.196 21.9874   3
  -5  -1   2 523.510 26.0297   3
  -5   1  -2 486.619 25.8563   1
   1   2   5 509.336 25.4326   1
   5   2  -1 478.081 23.1688   2
  -5   1  -2 505.330 21.2705   2
   5  -2   1 496.599 26.4608   3
   2   5   1 511.506 25.4580   2
   5  -1  -2 513.107 23.4196   2
   5  -1  -2 527.433 26.0317   3
  -2   1   5 465.714 26.5063   1
  -1   2  -5 491.456 25.2526   1
  -1  -2   5 516.575 25.9228   1
  -1  -2   5 513.865 21.3535   3
   2  -1   5 478.222 22.0643   3
   2   1  -5 499.387 27.1961   2
   2   1  -5 526.719 21.8875   3
   1  -2  -5 527.493 27.1766   2
  -5  -2  -1 494.600 25.8079   3
  -1   5   2 518.635 24.1146   1
  -2   5  -1 489.582 23.5969   1
  -2   5  -1 502.625 24.3173   2
   1  -5   2 483.361 24.4012   3
   1   5  -2 485.037 25.0396   2
  -2  -1  -5 454.253 23.5678   3
  -5   2   1 490.585 26.4235   1
   2  -5  -1 505.441 24.8976   3
  -5  -2  -1 473.973 24.6436   1
   0   5  -3 157.047 10.8553   2
  -5   3   0 149.402 11.0655   1
   0  -5   3 143.595 9.88162   3
   3   0   5 164.072 10.4318   3
   5  -3   0 153.629 11.5698   3
   5   3   0 156.179 9.61840   2
  -5   0   3 154.026 12.9314   1
  -3  -5   0 154.493 7.35072   1
   0  -5   3 157.051 9.28308   1
   5   0  -3 162.995 11.1712   3
   5   0   3 169.787 13.4669   3
  -5   3   0 151.682 7.30699   2
  -3   0  -5 138.579 10.3899   1
  -5  -3   0 146.751 9.69958   1
  -5  -3   0 141.886 10.8362   3
  -5   0  -3 149.557 10.6824   1
  -5   0  -3 156.590 8.69194   2
   3  -5   0 148.378 10.6285   3
   3   5   0 159.931 10.9699   2
  -3   0  -5 152.295 10.7606   2
   0   5   3 170.769 11.2044   1
   3   0  -5 159.035 12.1028   2
   3   0  -5 142.923 8.39853   3
  -3  -5   0 143.222 10.8272   3
  -3   5   0 150.518 9.90488   1
  -3   5   0 148.239 9.48134   2
   0  -3  -5 154.032 11.5413   2
   0  -3  -5 154.158 9.08359   3
   0  -3   5 140.947 10.2417   1
   0  -3   5 150.190 8.32134   3
   0   3  -5 169.775 12.5728   2
   0   3   5 157.087 10.8697   1
  -3   0   5 143.064 12.1279   1
   0  -5  -3 141.761 10.5899   2
   5   0  -3 158.423 10.1898   2
   0  -5  -3 155.320 10.4014   3
  -5  -3   2 275.518 15.7070   3
  -5   3  -2 280.359 13.0319   2
  -3   2  -5 275.718 16.6129   2
  -2   5  -3 270.233 15.2297   2
  -2  -5   3 266.164 14.9849   3
  -2   5  -3 269.056 14.5873   1
   5   3   2 272.448 14.3811   2
  -5  -3   2 255.093 15.9157   1
  -3  -5  -2 244.068 12.0970   1
  -3  -2   5 252.653 16.5756   1
  -3  -2   5 267.708 13.1006   3
  -3   2  -5 262.535 15.8525   1
   3  -5   2 226.873 14.6956   3
   3   5  -2 239.950 15.2474   2
  -2   3   5 255.518 17.3088   1
  -2  -5   3 276.665 14.1337   1
   5  -3  -2 268.836 13.1777   2
   5  -3  -2 262.733 15.9661   3
  -5  -2  -3 226.433 14.4137   1
  -5  -2  -3 242.656 13.5406   2
  -5  -2  -3 248.232 16.2268   3
   2   5   3 267.426 13.0273   1
   3  -2  -5 262.898 17.0532   2
   3  -2  -5 273.487 13.4112   3
  -3   5   2 255.797 15.3627   1
  -5   2   3 212.933 17.2755   1
   5  -2   3 232.699 15.8006   3
  -3  -5  -2 242.819 15.4856   3
   2  -5  -3 267.041 15.3109   2
   2  -5  -3 282.335 15.3396   3
  -5   3  -2 260.597 16.0476   1
   2  -3   5 250.469 13.1735   3
   5   2  -3 242.345 14.7737   2
  -2  -3  -5 231.089 15.5310   2
  -2  -3  -5 243.726 14.0659   3
   2   3  -5 234.756 16.4991   2
  -2  -3   5 258.921 12.9362   3
  -2   3  -5 268.225 15.5274   1
  -5   2  -3 259.879 12.8447   2
  -2  -5  -3 229.279 14.9695   3
   2  -3  -5 247.692 16.4910   2
   2  -3  -5 265.407 13.3476   3
  -3   5  -2 268.476 14.4151   2
  -2  -3   5 289.462 16.2418   1
   2   3   5 250.967 14.8615   1
   3  -5  -2 264.985 14.5071   2
   3  -5  -2 267.259 15.4347   3
  -3  -2  -5 237.477 14.5248   1
  -3  -2  -5 252.320 15.4356   2
   3   5   2 248.281 15.3770   2
   5  -2  -3 255.887 14.5243   2
   5  -2  -3 261.506 15.6719   3
  -3  -2  -5 244.637 15.0673   3
  -2   3  -5 254.044 17.2319   2
  -5   3   2 232.469 16.7334   1
  -3   2   5 224.121 17.7123   1
  -2  -5  -3 257.980 15.4917   2
  -5  -3  -2 242.606 14.1504   1
  -5  -3  -2 234.938 15.4760   3
   5  -3   2 223.262 15.4993   3
   5   3  -2 243.190 14.3030   2
  -3   5  -2 249.053 14.3761   1
  -2   5   3 193.943 15.0008   1
  -3  -5   2 269.400 14.0964   1
  -3  -5   2 268.289 15.5580   3
   2  -5   3 251.251 14.6985   3
   2   5  -3 247.425 15.6397   2
  -5  -2   3 261.594 17.1992   1
  -5  -2   3 264.370 15.2901   3
  -5   2  -3 268.398 16.0317   1
   3  -2   5 236.744 13.3427   3
   3   2  -5 234.159 16.4263   2
  -5  -1  -4 121.463 9.59300   1
  -5  -1  -4 127.689 8.68619   2
   5  -1   4 115.442 10.2026   3
   5   1  -4 106.591 9.51178   2
   5   1  -4 122.768 9.93904   3
  -5   4  -1 142.087 7.59783   2
   4  -5   1 125.725 10.0138   3
   4   5  -1 99.1487 8.95158   2
   1   4  -5 113.696 10.4000   2
  -5   4  -1 148.610 10.7653   1
  -1   4   5 119.814 10.1558   1
  -5  -1  -4 124.227 11.3571   3
  -1  -5   4 129.519 9.05884   3
   5   4   1 129.542 9.29409   2
  -1   5  -4 146.190 10.7805   2
  -5   1   4 106.703 11.1931   1
  -4  -5  -1 120.349 7.11376   1
  -4  -5  -1 126.939 10.3689   3
  -4   1  -5 139.802 10.3605   1
  -4   1  -5 144.878 9.84703   2
   1   5   4 144.029 8.87899   1
   4  -1  -5 153.468 11.3801   2
  -4   5   1 109.972 9.22438   1
  -4   5   1 121.099 8.33247   2
  -1  -4  -5 118.220 10.1597   2
  -1  -4  -5 137.875 9.21389   3
   5  -4  -1 150.940 11.1976   3
   1  -4   5 108.894 7.88652   3
  -5  -4   1 141.711 9.04372   1
  -1  -5   4 133.480 8.91119   1
  -5  -4   1 140.804 10.5961   3
  -1   5  -4 145.739 9.28489   1
   4  -1  -5 143.538 8.85204   3
  -4  -1   5 148.621 13.0002   1
   1  -5  -4 140.291 9.54968   3
   1  -5  -4 131.995 10.2534   2
   5  -1  -4 139.014 10.0754   2
  -1  -4   5 135.857 8.32830   3
  -4  -5   1 140.328 7.87384   1
  -4  -5   1 141.833 10.7175   3
   5  -1  -4 142.685 9.79212   3
   4  -1   5 122.700 9.26497   3
   4   1  -5 113.479 10.3105   2
   4   1  -5 120.456 8.77609   3
   1  -5   4 117.117 8.76121   3
   5  -4   1 114.957 10.1506   3
   5   4  -1 114.299 8.90091   2
  -5   1  -4 134.463 10.2495   1
   1  -4  -5 135.984 8.80010   3
   4   5   1 133.425 9.89448   2
  -4   5  -1 135.216 8.35746   2
  -4   1   5 130.486 12.9808   1
  -1  -5  -4 114.994 9.76412   2
  -1  -5  -4 127.594 9.56357   3
  -1   4  -5 151.370 11.8659   2
  -1  -4   5 138.022 9.75852   1
   1  -4  -5 124.379 10.6929   2
  -5   1  -4 135.010 8.46216   2
  -1   5   4 114.296 10.7103   1
  -5   4   1 116.376 7.40740   2
  -4  -1  -5 106.345 9.20487   1
  -4  -1  -5 122.932 9.43576   2
  -4  -1  -5 99.9363 9.83916   3
   1   5  -4 115.936 10.0016   2
  -4   5  -1 143.002 9.95760   1
   1   4   5 134.356 9.48293   1
   4  -5  -1 148.970 10.8042   3
  -5   4   1 113.194 9.91215   1
  -1   4  -5 140.275 9.76645   1
  -5  -1   4 156.309 12.7202   1
  -5  -4  -1 114.808 9.97753   3
  -5  -4  -1 121.481 8.28875   1
   5   3  -4 116.239 9.93833   2
   5  -3   4 120.929 9.78671   3
  -3   5  -4 106.805 9.45331   2
  -4  -5  -3 114.710 7.34270   1
   4  -5   3 110.836 9.30864   3
   4   5  -3 115.776 9.77067   2
  -5   4  -3 124.880 8.76967   2
  -4  -3   5 116.161 8.32025   3
   3  -4   5 128.196 8.80080   3
   3   4  -5 117.682 10.7594   2
   5  -4  -3 116.964 9.79741   3
  -5  -3  -4 134.230 10.8293   3
  -5  -4   3 123.065 10.0346   1
  -4   5   3 131.777 11.3614   1
  -3  -4  -5 118.802 9.96348   2
  -3  -4  -5 123.130 9.39674   3
   3  -5  -4 125.603 9.35580   3
  -4  -3   5 108.104 10.8015   1
   5   4   3 119.200 9.21146   2
   3   5   4 108.427 7.67406   1
  -3   4   5 131.450 12.5108   1
   4  -3  -5 117.748 8.61625   3
  -3  -5   4 113.479 8.82500   3
  -3   5  -4 112.230 9.04812   1
  -5  -3  -4 116.149 8.74459   1
  -5  -3  -4 115.884 8.70198   2
   5  -4  -3 124.257 8.60777   2
   3  -5  -4 109.237 9.39420   2
   4  -3  -5 124.138 10.6640   2
  -4   3  -5 123.281 9.94483   2
  -4   3  -5 105.700 9.48312   1
  -5   3   4 120.163 12.1596   1
  -3  -5   4 123.793 9.50996   1
  -4  -5  -3 94.6069 9.10263   3
  -5   4  -3 98.0517 9.14962   1
  -5  -4   3 112.146 9.31729   3
   4  -5  -3 113.784 8.80230   2
  -5  -4  -3 115.937 9.96799   3
  -5  -3   4 115.859 10.8760   1
  -5  -4  -3 108.021 7.89133   1
  -4  -5   3 106.058 8.82546   1
   4   5   3 109.832 9.51890   2
  -5   4   3 113.362 11.3505   1
  -4  -3  -5 116.253 8.68954   1
  -4  -3  -5 98.1131 8.84062   2
  -4  -3  -5 117.152 9.70108   3
  -5  -3   4 115.633 9.17849   3
   3  -4  -5 112.092 8.36187   3
  -5   3  -4 117.405 8.44310   2
  -3   4  -5 108.363 9.34289   1
  -4   3   5 97.7734 13.1012   1
  -3  -5  -4 114.100 9.49916   2
  -3  -5  -4 107.327 9.28534   3
  -4  -5   3 127.059 9.70856   3
  -4   5  -3 118.375 9.39016   1
  -4   5  -3 119.079 8.94934   2
   5  -3  -4 110.972 9.23002   2
  -3   5   4 107.056 10.6783   1
   4  -5  -3 106.661 9.28543   3
  -3  -4   5 112.208 9.68491   1
   3  -5   4 110.146 8.83841   3
   3   5  -4 118.534 10.1332   2
  -3   4  -5 118.853 10.7640   2
  -3  -4   5 112.802 8.10427   3
   3  -4  -5 106.541 10.1315   2
   4  -3   5 122.229 8.80609   3
   4   3  -5 105.803 10.3131   2
   5  -3  -4 111.594 9.21547   3
   3   4   5 107.170 8.41516   1
   5  -4   3 121.585 9.95249   3
   5   4  -3 112.585 9.40826   2
  -5   3  -4 108.528 9.74137   1
  -5  -5   0 1947.20 80.9745   1
  -5  -5   0 1892.63 82.7382   3
  -5   0  -5 1898.08 84.3156   1
  -5   0  -5 1915.56 81.3309   2
  -5   0   5 1875.95 88.6340   1
  -5   5   0 1926.32 84.2750   1
  -5   5   0 1912.06 79.5016   2
   0  -5  -5 1898.82 84.0748   2
   0  -5  -5 1896.17 80.6845   3
   0  -5   5 1927.25 83.1910   1
   0  -5   5 1934.25 79.5124   3
   0   5  -5 1906.91 84.5037   2
   0   5   5 1881.55 83.7880   1
   5  -5   0 1961.58 82.9882   3
   5   0  -5 1959.57 83.6060   2
   5   0  -5 1871.54 79.8740   3
   5   0   5 1614.62 82.3351   3
   5   5   0 1938.08 82.2598   2
  -5  -5  -2 123.662 7.79996   1
  -5  -5  -2 139.849 11.0947   3
  -5  -5   2 114.922 8.48949   1
  -5  -5   2 120.624 10.3399   3
  -5  -2  -5 120.514 9.56892   1
  -5  -2  -5 119.309 9.26396   2
  -5  -2  -5 131.295 11.6103   3
  -5  -2   5 94.0037 12.7187   1
  -5  -2   5 120.617 9.29565   3
  -5   2  -5 116.679 10.2253   1
  -5   2  -5 110.202 8.58175   2
  -5   2   5 109.980 11.9145   1
  -5   5  -2 109.832 9.61342   1
  -5   5  -2 123.401 8.39069   2
  -5   5   2 128.219 10.9696   1
  -5   5   2 124.733 8.51954   2
  -2  -5  -5 116.158 10.2193   2
  -2  -5  -5 124.850 9.66663   3
  -2  -5   5 101.802 8.80570   1
  -2  -5   5 116.761 8.58153   3
  -2   5  -5 101.205 9.01394   1
  -2   5  -5 123.350 10.8224   2
  -2   5   5 133.081 12.5572   1
   2  -5  -5 106.528 8.71428   3
   2  -5   5 128.770 9.15455   3
   2   5   5 119.846 8.67153   1
   5  -5  -2 117.096 10.3437   3
   5  -2  -5 124.826 10.6731   2
   5  -2  -5 113.663 8.91050   3
   5  -2   5 118.301 9.63437   3
   5   2  -5 137.047 11.3557   2
   5   5  -2 120.405 9.75503   2
   5   5   2 115.125 9.53566   2
  -5  -5  -4 523.943 25.3070   1
  -5  -5  -4 500.667 27.8192   3
  -5  -5   4 535.073 28.2059   1
  -5  -5   4 542.588 27.1759   3
  -5  -4  -5 496.212 25.9907   1
  -5  -4  -5 508.948 26.7839   2
  -5  -4  -5 524.988 28.0883   3
  -5  -4   5 485.275 29.5265   1
  -5  -4   5 500.333 25.8519   3
  -5   4  -5 509.601 28.0436   1
  -5   4  -5 517.345 27.2384   2
  -5   4   5 535.352 31.7483   1
  -5   5  -4 530.665 27.9034   1
  -5   5  -4 520.641 27.1272   2
  -5   5   4 392.374 29.1126   1
  -4  -5  -5 500.467 27.3603   2
  -4  -5  -5 516.236 27.5064   3
  -4  -5   5 499.986 29.0681   1
  -4  -5   5 508.986 25.8209   3
  -4   5  -5 500.154 27.3593   1
  -4   5  -5 523.372 28.8514   2
  -4   5   5 491.616 30.1698   1
   4  -5  -5 511.866 28.1292   2
   4  -5  -5 505.343 26.5381   3
   4  -5   5 496.702 26.0149   3
   4   5  -5 478.363 28.2002   2
   4   5   5 467.747 25.4661   1
   5  -5  -4 526.833 26.9156   2
   5  -5  -4 533.760 27.6058   3
   5  -5   4 475.176 26.7243   3
   5  -4  -5 502.281 27.9692   2
   5  -4  -5 513.774 26.7360   3
   5  -4   5 505.762 26.4517   3
   5   4  -5 515.057 28.4923   2
   5   5  -4 476.293 27.4821   2
   5   5   4 524.451 27.5517   2
  -6   0   0 2532.47 111.881   1
   0  -6   0 2697.32 108.348   3
   0   0  -6 2439.16 112.032   2
   0   0   6 2613.12 112.088   1
   0   6   0 2656.46 106.336   1
   0   6   0 2607.86 109.508   2
   6   0   0 2565.27 104.550   2
   6   0   0 2563.16 111.060   3
   1   6   1 1698.20 74.5845   2
   6  -1  -1 1677.50 69.3324   2
   6  -1  -1 1727.28 75.4177   3
   6  -1   1 1701.61 76.2513   3
   6   1  -1 1705.85 70.9150   2
   6   1   1 1682.83 70.2232   2
   1  -6  -1 1674.02 73.3800   3
   1  -6   1 1741.11 73.4511   3
   1  -1  -6 1616.44 76.6434   2
   1  -1   6 1688.30 75.7792   1
   1  -1   6 1723.01 67.9096   3
   1   1  -6 1737.22 77.6736   2
   1   1   6 1670.05 75.6905   1
   1   6  -1 1754.23 74.6646   2
  -1   6  -1 1670.84 73.8433   2
  -1   6   1 1758.90 71.8974   1
  -1   6   1 1748.32 74.1802   2
  -1  -1  -6 1676.06 76.2155   2
  -1  -1  -6 1808.51 69.5142   3
  -1  -1   6 1646.08 76.0247   1
  -1   1  -6 1635.73 76.8536   2
  -1   1   6 1771.61 77.0296   1
  -1   6  -1 1648.97 71.7799   1
  -6  -1   1 1672.64 74.8763   3
  -6   1  -1 1657.24 75.9832   1
  -6   1   1 1718.81 77.0101   1
  -1  -6  -1 1757.42 73.9110   3
  -1  -6   1 1651.65 73.1966   3
  -6  -1  -1 1761.76 76.0836   3
  -6  -1   1 1654.35 76.0922   1
  -6  -1  -1 1675.29 75.3595   1
   0  -2  -6 -0.3359 1.39848   2
  -6  -2   0 -0.1156 1.69838   3
  -6   2   0 0.23498 1.56614   1
  -2   0  -6 1.73326 1.69883   1
  -6  -2   0 -0.0582 1.13441   1
  -2   6   0 -1.0306 0.69182   1
  -2   6   0 -0.8493 0.81907   2
   0   6   2 -1.1863 1.00001   2
   2   0  -6 0.32730 1.90362   2
   2   0   6 -1.2978 0.92320   1
  -6   0   2 -0.2531 1.22313   1
  -2  -6   0 0.08877 1.52866   3
   2   0   6 -0.3845 0.76600   3
   6  -2   0 1.88119 2.19030   3
   6   2   0 0.18831 0.90275   2
   0  -6   2 -1.8028 0.86265   3
   0   6  -2 1.83481 1.72652   2
   0   6   2 -0.1891 0.59761   1
   6   0  -2 1.38985 1.78994   3
   6   0   2 0.10445 0.63204   2
   6   0   2 0.53107 2.74287   3
   0  -2  -6 -1.7215 0.41125   3
   0  -2   6 -0.1120 1.18000   1
   0  -2   6 -0.1105 0.42592   3
   0   2  -6 -1.6425 1.85761   2
   0   2   6 -1.5348 1.04785   1
   2  -6   0 -1.0117 1.07231   3
   2   6   0 -0.3779 1.40710   2
   6   0  -2 0.27959 0.90482   2
  -6   0  -2 0.08883 1.40559   1
  -2   0  -6 0.81867 1.71501   2
  -2   0   6 0.51529 1.53169   1
   0  -6  -2 -1.3230 0.78288   3
  -2  -2  -6 2274.50 107.243   3
  -2  -2   6 2815.47 114.703   1
  -6  -2  -2 2540.80 112.377   1
  -6  -2  -2 2462.14 111.319   3
  -6  -2   2 2488.00 113.838   1
  -6  -2   2 2672.63 110.632   3
  -6   2  -2 2888.55 114.748   1
  -6   2   2 2692.23 116.616   1
   2  -2  -6 2728.89 114.696   2
   2  -2  -6 2686.24 105.254   3
   2  -2   6 2547.88 105.355   3
   2   2  -6 2594.44 114.457   2
   2   2   6 2735.87 113.282   1
  -2  -2   6 2689.42 104.662   3
  -2   2  -6 2786.86 113.543   1
  -2   2  -6 2447.99 113.558   2
  -2   2   6 2434.41 114.794   1
  -2  -6  -2 2486.97 109.804   3
  -2  -6   2 2749.88 109.766   3
  -2  -2  -6 2507.19 112.224   2
  -2   6  -2 2756.27 110.704   1
  -2   6  -2 2652.31 110.441   2
  -2   6   2 2567.80 110.964   1
  -2   6   2 2526.53 110.668   2
   2  -6  -2 2701.05 109.690   3
   2  -6   2 2653.10 109.744   3
   6   2  -2 2541.76 108.904   2
   2   6   2 2286.80 107.938   1
   2   6   2 2751.98 111.986   2
   6  -2  -2 2712.74 107.345   2
   6  -2  -2 2765.79 111.353   3
   6  -2   2 2457.04 111.580   3
   6   2   2 2741.26 108.249   2
   1   3  -6 212.083 16.0708   2
   6  -1   3 204.901 15.6681   3
   6   1  -3 198.887 12.7170   2
   6   1  -3 198.452 14.6224   3
  -3   6   1 193.094 12.6546   2
  -3   6   1 189.846 12.2715   1
  -1  -6   3 226.890 11.7278   1
  -1  -6   3 204.497 13.2398   3
  -1   6  -3 220.834 12.0130   1
  -1   6  -3 215.642 13.8692   2
   3  -1  -6 206.674 10.4845   3
   1  -6  -3 220.114 13.9324   2
   1  -6  -3 190.452 13.0354   3
  -6  -1  -3 212.274 16.0355   3
   6  -3  -1 200.375 14.6964   3
  -6  -3   1 216.412 14.7012   3
   1  -3   6 222.527 14.4225   1
   6   3   1 211.665 12.1240   2
  -3   1  -6 213.829 14.1525   1
   1   6   3 203.265 12.4709   1
   3  -1  -6 200.837 15.2956   2
  -6  -1  -3 197.781 13.5121   1
  -1   3   6 227.944 15.1740   1
   3   6  -1 206.400 14.0912   2
  -3  -1   6 208.864 15.3739   1
  -1  -3  -6 199.397 14.6658   2
  -1  -3  -6 203.965 11.7846   3
  -6   3  -1 204.606 14.3646   1
  -3   1  -6 210.605 14.4419   2
  -6  -3   1 204.971 13.4105   1
  -6   1   3 182.549 15.8831   1
  -3  -6  -1 206.439 14.4511   3
   3  -6   1 184.329 13.4180   3
   1  -3   6 191.113 10.5291   3
  -6  -1  -3 193.008 10.9307   2
   6  -3   1 194.698 14.9516   3
  -3   1   6 203.236 15.9143   1
  -6   3   1 204.704 14.8036   1
  -6  -3  -1 196.611 14.3934   3
   1   3   6 212.894 13.9005   1
  -6   3   1 214.649 9.70825   2
   6  -1  -3 212.412 14.1299   3
  -3   6  -1 222.272 12.5776   1
  -6  -3  -1 200.876 12.9015   1
   3   6   1 201.447 13.7370   2
  -3  -1  -6 188.788 13.1456   1
  -3  -1  -6 199.770 14.1084   2
  -1   3  -6 217.504 16.4060   2
  -3   6  -1 209.494 12.6362   2
   1  -3  -6 209.158 15.5009   2
   1  -3  -6 220.776 11.4185   3
  -6   1  -3 209.830 10.3008   2
  -6   1  -3 203.796 14.2789   1
   1   6  -3 203.361 13.8596   2
  -3  -6   1 206.776 9.57141   1
  -3  -6   1 190.732 13.7537   3
  -1   6   3 206.446 13.0465   1
   3  -1   6 207.871 11.4267   3
   3   1  -6 211.919 15.3193   2
   3   1  -6 217.615 10.7043   3
  -6  -1   3 222.271 16.2862   1
  -1  -3   6 199.615 13.8268   1
   6   3  -1 196.579 12.0283   2
   6  -1  -3 220.899 12.6745   2
  -1  -6  -3 214.360 14.0591   3
   1  -6   3 193.033 13.0903   3
   3  -6  -1 213.738 14.0568   3
  -1  -3   6 201.743 10.3747   3
  -6  -3   3 199.633 13.1617   3
  -6   3  -3 184.625 9.26811   2
  -6   3   3 139.392 13.9806   1
  -3  -3  -6 169.803 11.9718   3
  -6  -3  -3 165.186 11.4524   1
  -6  -3  -3 159.316 13.0722   3
   6  -3  -3 179.459 10.8208   2
   6  -3  -3 176.922 12.9433   3
   6  -3   3 158.959 12.9669   3
   6   3  -3 159.717 11.5488   2
   6   3   3 173.744 11.1538   2
   3  -6   3 153.301 11.8303   3
   3  -3  -6 183.983 14.5011   2
   3  -3  -6 175.566 10.2672   3
   3  -3   6 152.078 10.0454   3
  -3  -3   6 192.711 13.8339   1
  -3  -3   6 173.606 9.90390   3
  -3   3  -6 181.898 12.9024   1
  -6  -3   3 196.672 14.2016   1
  -3  -3  -6 149.104 12.4111   2
  -6   3  -3 175.913 13.2281   1
  -3  -6   3 168.310 11.5192   1
  -3  -6   3 166.595 12.2517   3
   3  -6  -3 196.041 12.5288   2
   3  -6  -3 165.959 12.3013   3
   3   3  -6 134.220 12.9236   2
   3   3   6 173.731 12.2256   1
  -3   3  -6 184.116 14.1634   2
  -3   3   6 156.460 14.7284   1
  -3   6  -3 174.610 11.3903   1
  -3   6  -3 176.141 11.9456   2
  -3   6   3 167.127 12.5448   1
   3   6   3 178.818 13.1441   2
  -3  -6  -3 161.235 12.5180   3
   3   6  -3 147.836 12.2403   2
  -6   4   0 481.140 21.6507   2
  -4   0   6 516.488 30.9448   1
   0  -6  -4 465.385 26.3877   2
   0  -6  -4 502.108 26.0029   3
   0  -6   4 494.314 24.6524   1
   6   4   0 501.569 25.0390   2
  -4   6   0 502.049 24.6638   2
  -4   0  -6 501.898 26.9558   1
   4   0  -6 483.160 27.6802   2
   4   0  -6 491.375 23.1090   3
  -6   0  -4 500.728 23.5664   2
  -4   0  -6 485.570 26.1702   2
  -6  -4   0 474.740 26.8617   3
   0  -4  -6 510.625 24.2953   3
   0  -6   4 465.558 24.8704   3
   0   6  -4 518.289 27.1153   2
   0   6   4 504.908 27.1984   1
  -6   4   0 485.888 27.0583   1
  -6   0  -4 518.260 27.2290   1
  -4  -6   0 486.367 27.0103   3
  -6   0   4 511.926 30.2351   1
  -4  -6   0 496.543 21.8640   1
   0  -4   6 466.299 26.1183   1
   0  -4   6 496.147 23.0284   3
   0   4  -6 514.111 29.0621   2
   0   4   6 506.285 26.8388   1
   4  -6   0 520.588 26.9297   3
   4   6   0 475.232 26.2571   2
   6   0  -4 510.925 25.7405   2
   6   0  -4 494.772 25.9643   3
   6   0   4 476.741 28.9131   3
  -6  -4   0 495.303 24.9609   1
   4   0   6 527.240 25.7594   3
   6  -4   0 541.358 28.3837   3
   0  -4  -6 511.479 28.3068   2
  -4   6   0 494.157 25.6706   1
  -2   6  -4 72.1224 9.20583   2
  -2   6  -4 88.8743 7.44263   1
  -4   6   2 91.6165 7.51109   2
  -4  -6  -2 82.2512 10.4770   3
   2   6   4 76.6389 5.96712   1
   4  -6   2 88.2190 8.59350   3
   4   6  -2 65.6894 8.81425   2
  -4   2  -6 85.8199 8.27955   2
  -4   6   2 80.9987 7.81812   1
  -6  -2  -4 76.7624 7.53913   1
   6  -2   4 78.9637 10.1650   3
   6   2  -4 100.631 8.69179   2
  -6  -2  -4 119.522 11.0221   3
  -2  -6   4 80.5424 6.74848   1
   4  -2  -6 71.8852 6.02754   3
   6  -4  -2 84.8167 10.5414   3
  -6  -4   2 91.7390 8.09481   1
  -6  -4   2 81.4906 10.0714   3
  -6   4  -2 71.8300 9.48329   1
  -6   4  -2 80.9137 5.48696   2
   6   4   2 75.9558 7.03663   2
   2   4  -6 60.9788 9.62076   2
  -6   2   4 84.1715 12.4639   1
   2  -6  -4 62.4556 8.42582   2
  -4  -2   6 85.5993 11.7178   1
  -4  -2   6 73.1364 6.21122   3
  -4   2  -6 68.3824 9.22794   1
  -6  -2  -4 87.2085 6.75447   2
   4  -2  -6 68.2277 10.0290   2
   2  -6  -4 72.6731 7.51947   3
  -2  -4  -6 75.6141 6.93794   3
  -4  -6  -2 92.0105 5.12121   1
  -2  -6   4 75.0418 7.34828   3
  -2  -4  -6 72.2891 9.59612   2
  -2   4   6 90.5300 11.8449   1
   2  -4   6 87.2981 6.47366   3
  -4  -2  -6 87.3387 8.22503   2
   2   4   6 74.4297 7.32167   1
   4  -6  -2 76.9448 8.00000   3
  -4  -2  -6 91.5995 7.98660   1
  -6  -4  -2 88.2585 7.02165   1
  -4   6  -2 76.4054 6.83193   2
   6  -2  -4 77.7140 7.42292   2
   6  -2  -4 67.9879 8.69567   3
  -6   2  -4 78.1760 10.0806   1
  -4  -2  -6 78.8074 10.0868   3
  -6   4   2 88.3793 11.7379   1
  -2  -4   6 77.1724 6.00460   3
  -2   4  -6 79.7848 7.88289   1
  -2   4  -6 79.3589 11.4787   2
  -4   2   6 104.311 14.4406   1
   2  -4  -6 67.9546 9.81412   2
   2  -4  -6 78.4513 6.47386   3
   4   6   2 69.9534 9.04580   2
   2  -6   4 82.7901 7.71554   3
   2   6  -4 81.7166 8.40460   2
  -4  -6   2 70.7215 5.71803   1
  -4  -6   2 80.0991 9.83960   3
  -4   6  -2 72.6065 7.12743   1
   4  -2   6 81.2779 6.75578   3
   4   2  -6 86.6798 11.0135   2
  -6  -4  -2 90.0112 8.89273   3
   6  -4   2 87.9255 10.9476   3
   6   4  -2 83.3160 7.48699   2
  -2  -4   6 84.1306 8.16782   1
  -6  -2   4 75.2881 10.9059   1
  -6   2  -4 72.9844 5.70197   2
  -2  -6  -4 94.0996 8.51762   3
  -6  -2   4 87.2664 8.41879   3
  -2   6   4 75.3976 9.92050   1
  -2  -6  -4 85.9861 8.45994   2
  -6  -4  -4 624.896 33.4487   3
  -4  -6  -4 634.471 32.7889   3
  -4  -6   4 641.743 32.8007   1
  -4  -6   4 579.214 31.1448   3
  -6  -4   4 611.231 33.8183   1
  -4  -4  -6 658.092 32.6488   3
  -4  -4   6 607.036 34.6334   1
   6  -4  -4 600.154 32.2239   3
   6  -4   4 636.193 32.9879   3
   6   4  -4 659.428 32.8546   2
   6   4   4 564.262 30.7690   2
  -6  -4   4 629.350 32.0983   3
  -6   4  -4 612.012 33.2033   1
  -6   4  -4 619.391 29.7494   2
  -6   4   4 597.000 36.6044   1
  -4  -4   6 616.946 29.6479   3
  -4   4  -6 630.625 33.2421   1
  -4   4  -6 594.573 33.7783   2
  -4   4   6 660.371 37.0410   1
  -4  -4  -6 658.543 33.2761   2
  -6  -4  -4 650.336 31.2143   1
  -4   6  -4 606.751 32.2394   2
  -4   6   4 586.484 34.7259   1
   4  -6  -4 621.890 32.0283   2
   4  -6  -4 643.118 32.2571   3
   4  -6   4 673.180 32.1564   3
   4  -4  -6 619.109 34.1134   2
   4  -4  -6 592.689 30.0766   3
   4  -4   6 658.673 30.4223   3
   4   4  -6 638.992 34.8815   2
   4   6  -4 650.388 33.4613   2
   4   6   4 629.377 33.0674   2
   6  -4  -4 621.970 31.1402   2
  -4   6  -4 587.256 31.6408   1
   6   5   1 709.279 35.8374   2
  -5   1  -6 726.785 36.1193   2
   1   5  -6 748.813 39.3584   2
   6  -5  -1 752.702 38.2861   3
  -5  -6  -1 793.621 38.6376   3
  -6  -5   1 710.647 37.4101   3
  -1   5   6 799.395 39.4062   1
  -6   5  -1 718.622 37.9264   1
  -6   5  -1 676.261 32.7841   2
   1  -5   6 786.223 37.7835   1
   1  -5   6 739.389 34.0461   3
  -1  -5  -6 759.595 38.5175   2
  -1  -5  -6 784.622 35.8942   3
  -5  -1   6 681.013 41.6342   1
   5  -6   1 772.348 37.9147   3
   5   6  -1 790.302 37.2536   2
  -6  -5   1 734.250 35.2783   1
  -5   1  -6 706.222 37.7809   1
   5  -1  -6 742.730 34.4438   3
   6  -1   5 795.699 38.6655   3
   6   1  -5 737.121 37.1962   2
   6   1  -5 753.804 36.1356   3
  -5   6   1 750.461 37.4434   1
   1  -6  -5 728.155 38.0220   2
   1  -6  -5 684.268 35.5004   3
  -6  -1  -5 778.885 35.2799   2
  -1  -6   5 716.818 35.0217   3
  -1   6  -5 739.693 38.2865   2
   1   6   5 735.304 35.9091   1
  -6   1   5 817.096 42.1329   1
  -5  -6  -1 771.030 33.2114   1
   5   1   6 679.586 38.7144   3
  -6  -1  -5 744.169 37.6475   1
  -1  -6   5 745.773 36.0708   1
  -5   6   1 763.471 34.8989   2
   5  -1  -6 766.254 38.4650   2
  -6  -1   5 707.267 40.2566   1
   5   6   1 705.866 36.4964   2
  -5  -1  -6 749.412 37.6608   1
  -1   6   5 832.903 40.6987   1
   1  -6   5 774.510 35.4505   3
   1   6  -5 759.091 38.5581   2
  -6   1  -5 735.472 34.4906   2
  -6   1  -5 711.362 37.7799   1
   6  -1  -5 745.657 35.6742   3
  -1  -5   6 722.848 33.8328   3
  -6   5   1 777.556 38.6529   1
   1   5   6 680.776 36.3032   1
  -6   5   1 802.574 33.5731   2
  -1  -5   6 732.919 36.9848   1
   6  -5   1 729.651 38.0855   3
   5  -6  -1 753.051 37.8016   3
   6  -1  -5 771.889 37.2235   2
   1  -5  -6 741.152 35.0587   3
  -5   1   6 733.038 42.2000   1
  -1  -6  -5 747.619 37.8229   2
  -1  -6  -5 761.148 36.5451   3
  -5  -1  -6 784.653 36.6331   2
  -6  -5  -1 775.871 38.3043   3
  -1   5  -6 749.948 39.8935   2
   6   5  -1 755.384 36.1009   2
   1  -5  -6 736.743 38.8668   2
   5   1  -6 744.077 38.1564   2
   1  -6   5 808.187 36.9155   1
  -5  -6   1 732.903 33.6601   1
  -5  -6   1 742.380 37.7954   3
  -5   6  -1 732.815 37.1179   1
  -5   6  -1 730.853 34.4622   2
   6   1   5 631.448 39.7161   3
   5  -1   6 789.101 36.3038   3
  -6  -5  -1 762.970 34.7307   1
   5   1  -6 779.921 34.5878   3
   6   3  -5 425.819 25.1642   2
  -6   5  -3 423.362 21.9543   2
  -6  -3  -5 415.741 22.8208   2
  -6  -3  -5 466.812 26.7552   3
   6  -3   5 447.885 24.5362   3
   3   5  -6 472.135 26.9033   2
  -3   5   6 441.056 28.0557   1
  -6  -5   3 395.024 23.9125   1
   5  -6   3 450.138 24.9127   3
   5   6  -3 424.191 24.5821   2
  -6  -3  -5 462.113 24.0840   1
  -5  -3   6 418.992 27.9596   1
   3  -6  -5 435.027 25.2566   2
  -3  -6   5 393.167 22.5463   3
  -3   6  -5 422.660 23.8862   1
  -3   6  -5 420.986 25.3089   2
  -3  -5  -6 446.161 24.1712   3
  -6   3   5 463.376 28.9995   1
  -5  -6  -3 439.467 20.9380   1
  -5  -6  -3 414.791 24.9636   3
  -6   5  -3 403.337 24.5742   1
   3   6   5 403.889 21.8103   1
   5  -3  -6 387.837 25.1015   2
   5  -3  -6 414.061 22.4969   3
  -5   6   3 475.172 26.9052   1
  -5   6   3 436.881 23.2378   2
  -3  -5  -6 424.050 24.9574   2
  -3  -6   5 421.004 23.8591   1
  -5   3  -6 430.171 25.1854   1
  -5   3  -6 431.015 24.0480   2
   6   5   3 404.993 23.2631   2
  -6  -5   3 427.825 24.5059   3
  -5  -3   6 424.286 22.5155   3
   6  -5  -3 433.787 25.3123   3
   6  -5  -3 418.420 21.9020   2
   3  -5   6 436.472 22.4491   3
   3  -6  -5 421.737 23.5244   3
   3  -5  -6 433.728 22.7409   3
  -6   3  -5 419.640 21.7642   2
  -3   5  -6 452.461 27.2284   2
  -5  -6   3 407.132 22.8411   1
  -6  -5  -3 426.936 25.2613   3
  -6   5   3 462.875 27.9326   1
  -5  -3  -6 407.522 23.3463   1
  -6  -5  -3 418.534 21.9974   1
  -5  -3  -6 428.749 25.5830   3
   6  -3  -5 407.429 24.1782   2
   3   5   6 455.765 23.5723   1
  -3  -5   6 417.082 24.7128   1
  -3  -5   6 424.849 21.8201   3
  -5   3   6 461.366 28.8522   1
  -3  -6  -5 447.254 25.0412   2
  -3  -6  -5 439.082 24.5357   3
   5  -6  -3 403.751 24.4648   3
  -6  -3   5 464.898 27.1014   1
  -6  -3   5 421.499 23.6539   3
  -6   3  -5 399.674 24.7398   1
  -3   6   5 443.583 26.7538   1
   6  -3  -5 425.482 23.7537   3
  -5  -3  -6 447.587 24.3810   2
   3  -6   5 417.730 23.0186   3
   3   6  -5 459.051 26.2370   2
  -5  -6   3 435.736 24.5753   3
  -5   6  -3 419.473 24.1454   1
  -5   6  -3 440.827 23.2404   2
   5  -3   6 442.444 23.1781   3
   5   3  -6 420.523 26.0869   2
   5   6   3 421.956 24.2491   2
   3  -5  -6 426.911 26.1503   2
   6  -5   3 442.583 25.1558   3
   6   5  -3 468.892 24.5294   2
  -3   5  -6 420.501 24.2213   1
  -6  -5  -5 864.982 41.3894   1
  -6  -5  -5 880.877 42.1677   2
  -6  -5  -5 822.980 43.4856   3
  -6  -5   5 887.933 44.5061   1
  -6  -5   5 871.605 41.9504   3
  -6   5  -5 882.421 44.2008   1
  -6   5  -5 895.780 41.9938   2
  -6   5   5 840.273 48.0455   1
  -5  -6  -5 854.306 43.4951   3
  -5  -6   5 880.566 44.1648   1
  -5  -6   5 860.640 41.7684   3
  -5  -5  -6 845.786 41.3512   1
  -5  -5  -6 859.538 43.0955   2
  -5  -5  -6 876.589 43.6495   3
  -5  -5   6 881.346 46.7479   1
  -5  -5   6 873.985 40.9508   3
  -5   5  -6 857.788 43.9539   1
  -5   5  -6 809.684 43.7237   2
  -5   5   6 850.260 47.0645   1
  -5   6  -5 892.701 43.6250   1
  -5   6  -5 822.568 43.3410   2
  -5   6   5 776.379 46.4079   1
   5  -6  -5 911.440 43.8727   2
   5  -6  -5 913.649 43.3124   3
   5  -6   5 860.462 41.9714   3
   5  -5  -6 924.931 45.3394   2
   5  -5  -6 889.851 42.0072   3
   5  -5   6 866.257 41.3116   3
   5   5  -6 847.689 44.9380   2
   5   6  -5 883.616 44.5154   2
   5   6   5 839.433 40.6603   1
   6  -5  -5 873.976 43.1583   2
   6  -5  -5 869.157 43.1097   3
   6  -5   5 822.404 41.9269   3
   6   5  -5 857.766 44.0935   2
  -6  -6   0 106.454 7.28808   1
  -6  -6   0 105.671 10.6853   3
  -6   0  -6 99.3855 9.68416   1
  -6   0  -6 103.518 8.51701   2
  -6   0   6 83.7125 12.4307   1
  -6   6   0 104.793 9.86827   1
  -6   6   0 102.257 7.34510   2
   0  -6  -6 106.101 10.5081   2
   0  -6  -6 106.504 9.20547   3
   0  -6   6 101.174 8.78806   1
   0  -6   6 110.862 8.54378   3
   0   6  -6 104.489 10.9632   2
   0   6   6 93.1248 9.27778   1
   6  -6   0 104.155 12.9347   3
   6   0  -6 122.935 10.6565   2
   6   0  -6 108.394 8.48142   3
   6   0   6 91.3801 11.9373   3
   6   6   0 112.222 9.78849   2
  -6  -6  -2 1601.28 65.0797   1
  -6  -6  -2 1541.21 69.2649   3
  -6  -6   2 1391.58 65.8697   1
  -6  -6   2 1361.01 67.4852   3
  -6  -2  -6 1573.44 69.2630   1
  -6  -2  -6 1608.88 67.1590   2
  -6  -2  -6 1421.20 70.6514   3
  -6  -2   6 1410.98 72.5730   1
  -6   2  -6 1461.95 69.8937   1
  -6   2  -6 1395.03 65.4298   2
  -6   2   6 1584.10 73.9980   1
  -6   6  -2 1419.98 68.7100   1
  -6   6  -2 1348.70 64.4034   2
  -6   6   2 1636.88 71.0630   1
  -6   6   2 1631.56 65.5339   2
  -2  -6  -6 1537.50 69.5634   2
  -2  -6  -6 1594.99 67.2994   3
  -2  -6   6 1369.24 67.6484   1
  -2  -6   6 1440.52 64.5755   3
  -2   6  -6 1392.41 67.6783   1
  -2   6  -6 1312.80 69.5374   2
  -2   6   6 1581.68 73.0721   1
   2  -6  -6 1423.67 69.6485   2
   2  -6  -6 1408.74 65.5202   3
   2  -6   6 1615.73 65.4696   3
   2   6  -6 1561.33 70.6870   2
   2   6   6 1372.71 66.6906   1
   6  -6  -2 1443.18 68.4719   3
   6  -6   2 1729.95 69.8126   3
   6  -2  -6 1461.69 68.7528   2
   6  -2  -6 1478.38 65.6385   3
   6  -2   6 1583.64 67.1525   3
   6   2  -6 1549.78 69.9746   2
   6   2  -6 1598.50 66.8981   3
   6   6  -2 1592.88 68.0743   2
   6   6   2 1383.81 66.9222   2
  -6  -6  -4 220.080 13.4637   1
  -6  -6  -4 194.622 16.2418   3
  -6  -6   4 236.728 15.9664   1
  -6  -6   4 262.884 17.0270   3
  -6  -4  -6 194.644 14.5168   1
  -6  -4  -6 211.918 15.2268   2
  -6  -4  -6 236.480 17.6541   3
  -6  -4   6 232.550 18.2766   1
  -6  -4   6 253.579 15.8086   3
  -6   4  -6 229.898 17.0771   1
  -6   4  -6 249.271 15.4775   2
  -6   4   6 214.677 18.9613   1
  -6   6  -4 228.179 16.3865   1
  -6   6  -4 237.923 15.2799   2
  -6   6   4 183.067 17.6120   1
  -4  -6  -6 219.783 16.3253   2
  -4  -6  -6 232.035 16.4365   3
  -4  -6   6 241.715 17.4197   1
  -4  -6   6 239.260 14.9522   3
  -4   6  -6 247.507 16.6747   1
  -4   6  -6 248.025 18.3795   2
  -4   6   6 208.719 17.7052   1
   4  -6  -6 236.809 17.7817   2
   4  -6  -6 241.259 15.7103   3
   4  -6   6 210.978 14.7962   3
   4   6  -6 223.680 17.6294   2
   4   6   6 226.509 14.3355   1
   6  -6  -4 229.855 15.1930   2
   6  -6  -4 256.662 17.5563   3
   6  -6   4 231.986 16.5450   3
   6  -4  -6 229.651 16.9577   2
   6  -4  -6 238.088 15.7476   3
   6  -4   6 225.212 15.4057   3
   6   4  -6 186.928 16.4170   2
   6   6  -4 202.629 16.0188   2
   6   6   4 216.070 15.7789   2
  -6  -6  -6 138.692 12.3174   2
  -6  -6  -6 127.267 13.0550   3
  -6  -6   6 175.970 14.0861   1
  -6  -6   6 180.816 13.1341   3
  -6   6  -6 167.320 13.8923   1
  -6   6  -6 165.770 13.3605   2
  -6   6   6 140.138 18.0901   1
   6  -6  -6 150.859 13.5208   2
   6  -6  -6 174.593 13.8874   3
   6  -6   6 132.882 12.1580   3
   6   6  -6 131.400 13.8042   2
  -7   0  -1 215.467 15.2157   1
  -7   0   1 235.979 16.3317   1
  -1  -7   0 217.817 15.1989   3
  -1   7   0 225.228 11.5199   1
  -1   7   0 230.103 14.9154   2
   0  -1  -7 229.467 17.2113   2
   0  -1   7 226.330 15.5640   1
   0   1  -7 239.095 17.6670   2
   0   1   7 228.156 15.7648   1
   1  -7   0 213.808 15.0223   3
   1   7   0 229.051 15.3412   2
   7   0  -1 230.124 11.4551   2
   7   0  -1 239.133 16.7917   3
   7   0   1 245.954 17.8197   3
  -7   1   0 202.497 15.2803   1
  -1   0  -7 236.597 17.2815   2
  -1   0   7 246.955 16.4206   1
   0  -7  -1 229.072 15.3517   3
   0  -7   1 227.772 15.2310   3
   0   7  -1 229.550 15.2417   2
   0   7   1 236.519 10.2487   1
   0   7   1 242.333 15.4086   2
   1   0  -7 207.584 16.8005   2
   1   0   7 233.865 15.6999   1
   7   1   0 238.358 11.5674   2
  -7  -1   0 259.132 15.9941   1
   2   1   7 18.7066 3.24329   3
   7  -1   2 5.72337 3.58041   3
  -1  -2  -7 4.33829 1.46318   3
  -7  -2   1 15.9165 4.15180   1
  -7  -2   1 18.0185 5.08121   3
  -7   2  -1 18.7362 4.87399   1
   2   7  -1 4.32870 2.47459   2
  -2   7   1 8.98673 2.23362   1
  -2  -1   7 9.13347 3.58166   1
  -2   1  -7 17.6343 4.93200   2
   2  -1  -7 14.7574 4.80485   2
  -7   1   2 8.14262 3.59159   1
  -1  -7   2 16.4195 4.18331   3
  -1   7  -2 17.3027 2.87292   1
  -1   7  -2 18.1383 4.37496   2
   1  -2   7 6.33758 2.57340   1
   2  -7   1 5.04045 2.51310   3
   1  -7  -2 14.4535 3.82498   3
  -1  -2  -7 10.7711 4.09508   2
   2   1   7 14.1157 3.96795   1
   1   7   2 17.0941 4.45610   2
   1  -2   7 8.19716 1.32157   3
   7   1  -2 5.69204 1.93175   2
  -1   2   7 6.95843 3.22645   1
   7   2   1 14.4065 2.68477   2
   7  -2  -1 12.1381 3.91181   3
   7   1  -2 3.51647 2.58788   3
  -2  -7  -1 4.25477 2.59475   3
   1   2  -7 5.64348 3.32051   2
  -2   7   1 9.47108 2.95500   2
  -7  -1  -2 7.34259 2.93114   1
  -2   1   7 4.36201 2.69891   1
   1   2   7 19.7052 4.64066   1
  -1   7   2 6.16693 2.71264   2
   7  -1  -2 18.1848 4.71295   3
  -7   1  -2 17.0531 4.37503   1
  -1   7   2 7.43754 1.90513   1
   2  -7  -1 15.5547 4.42963   3
  -2  -7   1 11.0836 3.60688   3
  -2   7  -1 15.4176 2.81572   1
  -2   7  -1 13.1753 3.59205   2
  -2  -1  -7 5.96860 3.28552   2
  -7   2   1 8.98142 3.89450   1
   1  -7   2 6.21434 2.79293   3
   1   7  -2 4.67478 2.54639   2
  -1  -2   7 13.5683 3.96195   1
  -1   2  -7 9.64923 4.04681   2
   7   2  -1 8.81427 2.31881   2
   1  -2  -7 18.5654 6.02731   2
   7   1   2 23.8290 6.81914   3
   2  -1   7 6.95477 2.92661   1
   2  -1   7 6.75463 1.40367   3
   2   1  -7 6.73218 3.45351   2
   7  -1  -2 12.8506 2.35622   2
  -7  -1   2 24.4660 5.99243   1
   2   7   1 12.5675 3.85598   2
   7  -2   1 3.22323 3.10011   3
   7   1   2 19.8735 2.79768   2
  -1  -7  -2 3.14763 2.09252   3
  -7  -2  -1 7.15089 3.65243   3
  -7  -2  -1 6.16441 2.58657   1
   3   7   0 2.93507 2.33139   2
   3  -7   0 2.04742 1.85900   3
   0   3   7 3.77795 2.50756   1
  -3  -7   0 3.01777 2.47814   3
   0   7   3 4.61291 1.66702   1
   0   7   3 1.87223 1.92102   2
   3   0  -7 1.13047 2.96091   2
   3   0   7 2.44912 1.30121   3
   7  -3   0 5.72992 3.38873   3
   7   3   0 5.51872 1.94169   2
  -3   0  -7 1.90795 1.86798   1
  -3   0   7 4.87985 2.89329   1
   7   0  -3 5.50352 2.20757   2
   7   0  -3 4.08343 2.74652   3
   7   0   3 6.89801 1.54823   2
  -3   7   0 2.38696 1.46469   1
  -3   7   0 3.61804 1.98188   2
   0  -3  -7 2.26401 2.60591   2
   0  -3  -7 3.20576 1.10851   3
   0  -3   7 1.56269 1.87312   1
   0  -3   7 2.62854 0.94302   3
   0   3  -7 4.65832 3.19702   2
  -7   0  -3 2.95668 2.25971   1
  -7   0   3 7.69735 3.64925   1
   0  -7   3 3.47764 0.96604   1
   0  -7   3 3.49995 2.35438   3
   0   7  -3 3.14823 2.08698   2
  -7   3   0 3.74436 2.65952   1
  -7  -3   0 2.26021 2.52886   3
   7   0   3 4.00963 3.29109   3
  -3   0  -7 4.18264 2.64289   2
  -7  -3   0 2.17519 1.59074   1
   0  -7  -3 1.20347 1.77269   3
  -3   7   2 620.303 31.5627   2
  -7   3  -2 616.044 33.6085   1
  -2  -3  -7 639.982 30.3969   3
  -3   7   2 631.406 30.8237   1
  -7   2   3 544.125 35.4309   1
   2  -3   7 629.430 27.8319   3
   7   3   2 628.496 29.7115   2
  -2   7  -3 647.064 30.3729   1
  -2   3   7 633.598 34.9277   1
  -7  -2  -3 648.939 32.5326   1
  -7  -2  -3 636.755 35.4148   3
   3  -7   2 634.088 32.3267   3
   3   7  -2 631.513 32.7504   2
   2  -7  -3 618.784 32.2004   3
   7  -3  -2 633.270 33.6102   3
  -3  -2   7 650.708 34.8894   1
  -3   2  -7 655.252 33.3495   1
  -3   2  -7 613.797 34.2062   2
   3  -2  -7 631.380 27.5683   3
  -2  -3  -7 610.122 33.6051   2
   7  -2   3 590.706 34.1166   3
   7   2  -3 659.302 31.2505   2
  -2   7  -3 609.364 31.8809   2
  -7  -3   2 641.464 33.2200   3
   3   2   7 576.844 32.4760   1
  -3  -7  -2 647.566 33.2792   3
  -7  -3   2 640.436 33.5764   1
   2   3  -7 644.679 35.9879   2
   3  -2  -7 641.894 35.5627   2
   7  -3  -2 598.923 27.1167   2
   2   7   3 619.968 33.0632   2
  -2  -7   3 629.077 31.8182   3
  -2  -3   7 643.041 27.1748   3
  -3   2   7 678.183 36.9275   1
   7   3  -2 658.269 30.6122   2
   2  -3  -7 616.851 28.1535   3
  -7   3   2 665.300 36.0206   1
  -2  -7  -3 604.284 32.4779   3
  -2  -3   7 629.667 33.5616   1
   7  -2  -3 624.417 32.6817   3
   2  -7   3 665.612 32.2617   3
   2   7  -3 619.323 32.7361   2
   3  -7  -2 656.057 32.8495   3
   3   7   2 608.990 32.8882   2
   7  -2  -3 579.547 29.1718   2
   3  -2   7 628.512 28.1952   3
  -7  -2   3 623.037 32.9859   3
  -2   7   3 627.422 32.4027   2
   2   3   7 603.368 32.4415   1
  -7   2  -3 655.111 33.9194   1
   7  -3   2 627.730 34.5666   3
  -7  -2   3 610.670 34.7097   1
  -3  -7   2 594.888 32.0289   3
  -3   7  -2 623.488 30.4214   1
  -3   7  -2 633.068 31.4399   2
  -7  -3  -2 642.911 31.7640   1
  -7  -3  -2 642.618 34.0765   3
   7   2   3 587.080 28.9206   2
   2  -3  -7 642.180 35.7159   2
  -3  -2  -7 627.053 33.4132   2
  -3  -2  -7 601.416 31.0448   3
  -2   7   3 663.740 31.0494   1
   3   2  -7 600.038 34.5946   2
  -2   3  -7 615.810 35.1996   2
  -4   1  -7 82.7912 8.72245   2
   4  -1  -7 87.8034 12.0821   2
  -4  -1   7 86.0926 12.5931   1
  -4   1  -7 95.4638 9.28123   1
   4  -7   1 89.2707 10.8053   3
   1  -7  -4 68.5233 9.34614   2
  -1   7  -4 84.1325 7.04179   1
  -1  -4  -7 89.8563 7.31825   3
   1  -7  -4 80.4551 8.24985   3
  -7  -1  -4 92.1723 8.79389   1
  -7  -1  -4 88.8532 6.40162   2
   1   7   4 87.9619 8.01594   1
  -1   4   7 89.6813 11.3608   1
   4  -1  -7 78.5918 5.65881   3
  -7   1   4 97.4881 13.6550   1
  -4  -7  -1 82.3223 10.8521   3
  -7  -4   1 85.2596 11.4589   3
   4   1   7 85.9193 8.49193   3
  -1   7  -4 75.1697 9.74691   2
  -7   4  -1 74.8702 10.4846   1
  -1  -4  -7 84.2862 11.2243   2
   7   4   1 75.4129 7.08583   2
   7  -1   4 93.5691 12.7348   3
   7   1  -4 78.4771 7.78717   2
   1  -4   7 87.4879 6.19162   3
   1   4  -7 91.5275 12.9009   2
  -1  -7   4 83.8866 8.18799   3
   7   1  -4 94.0916 9.27613   3
  -1  -7   4 78.3364 6.43978   1
   4   7  -1 89.8348 8.92145   2
   7  -4  -1 84.5092 11.3718   3
  -4   7   1 94.9991 7.92120   1
  -4   7   1 92.5642 7.95500   2
   1  -4   7 81.3613 8.47256   1
  -7  -4   1 80.7938 7.83084   1
  -1   7   4 83.6765 8.00300   1
  -4  -7   1 74.2832 10.0615   3
  -4   7  -1 94.5076 7.91466   1
  -4   1   7 83.0285 13.2072   1
   7  -4   1 88.4679 11.9780   3
   7   4  -1 84.0685 7.40487   2
   1  -4  -7 95.1674 12.4392   2
   4   1  -7 90.6813 5.91914   3
  -1  -7  -4 99.6262 9.52575   2
  -4  -1  -7 97.8837 9.20623   2
  -1  -7  -4 86.3915 8.67842   3
   7  -1  -4 91.3387 8.70298   3
  -7   4   1 77.1820 10.4824   1
  -4  -1  -7 101.868 9.05422   1
  -1  -4   7 74.0732 9.72917   1
  -1  -4   7 71.4816 5.58108   3
  -7  -4  -1 88.3878 7.63420   1
  -7  -4  -1 94.3476 11.6806   3
   4  -7  -1 73.2246 9.93915   3
   7   1   4 98.0985 14.1793   3
   4  -1   7 81.0252 6.76297   3
   4   1  -7 69.3132 10.4274   2
   1   4   7 87.8405 8.56285   1
  -7   1  -4 78.3236 10.4186   1
  -7   1  -4 80.3093 5.46750   2
   7  -1  -4 91.7194 7.68837   2
  -7  -1   4 90.3988 12.7251   1
  -1   4  -7 102.534 14.3102   2
  -4   7  -1 87.2940 7.62642   2
   1  -4  -7 80.8682 6.60351   3
   1  -7   4 92.3989 8.45482   3
   1   7  -4 91.5760 9.06466   2
   4   7   1 70.8376 9.71590   2
  -3  -7   4 488.315 25.7459   3
   3   7   4 499.955 27.6488   2
   3   4  -7 445.820 28.5276   2
   3  -4   7 463.869 22.7756   3
  -3   4   7 443.593 29.9322   1
  -7   3   4 447.532 30.1889   1
  -4  -7  -3 444.284 26.5758   3
   3  -7  -4 476.673 26.0823   3
  -3  -7   4 430.572 24.5202   1
   7   3  -4 473.134 25.8705   2
   4  -7   3 447.038 25.8109   3
   4   7  -3 493.256 27.0334   2
  -4   3  -7 451.561 26.5559   1
   4  -3  -7 446.432 28.4153   2
   4  -3  -7 461.578 22.8377   3
  -3  -4  -7 472.288 27.3491   2
  -3   7  -4 470.879 26.1622   2
  -4  -3   7 467.760 22.6420   3
   7  -4  -3 416.643 26.3196   3
   7  -3   4 484.947 27.5366   3
  -7  -3  -4 481.595 25.6843   1
   7   4   3 443.013 23.8997   2
  -7  -4   3 437.647 26.2358   1
  -7  -4   3 473.360 26.5979   3
  -7   4  -3 465.259 27.3866   1
  -4   3  -7 506.471 28.1488   2
   7  -4  -3 435.201 22.2613   2
  -4   7   3 484.895 26.5427   1
  -4  -3   7 469.852 28.9304   1
   3  -7  -4 464.233 26.0303   2
  -3  -4  -7 497.035 25.5200   3
  -4   7   3 477.120 25.7671   2
  -7  -3  -4 489.858 28.8331   3
  -3   7  -4 482.634 24.9454   1
  -7  -4  -3 455.519 24.6662   1
  -7  -4  -3 480.547 27.8762   3
   4  -7  -3 466.774 26.3045   3
   3  -4  -7 480.169 23.2727   3
  -7   3  -4 468.403 27.3976   1
  -7   4   3 451.523 29.7389   1
  -4  -3  -7 449.881 26.5277   2
  -4  -3  -7 466.497 26.3139   3
   7   4  -3 453.569 25.0686   2
  -4   7  -3 464.914 25.1211   2
   3  -4  -7 466.310 28.6135   2
  -4   7  -3 446.604 24.7047   1
  -4   3   7 436.934 30.5519   1
  -3  -4   7 439.845 21.9956   3
  -4  -7   3 477.764 26.2530   3
  -3   7   4 474.260 27.1669   1
  -3   4  -7 430.806 25.9749   1
  -3   4  -7 482.134 29.2474   2
   7  -4   3 486.019 27.7800   3
  -3  -7  -4 419.642 25.7916   3
   3  -7   4 468.461 25.8460   3
   7   3   4 445.459 23.7409   2
  -7  -3   4 487.193 28.5428   1
  -7  -3   4 475.751 26.5376   3
   4   7   3 433.533 26.1192   2
   7  -3  -4 438.927 24.0367   2
   7  -3  -4 478.739 26.3173   3
   4  -3   7 466.805 23.0313   3
   4   3  -7 460.417 28.7578   2
  -3  -4   7 454.969 27.1463   1
   3   4   7 465.150 25.7439   1
   0  -5   7 127.345 8.72930   3
   0   5  -7 139.922 13.2902   2
   0   5   7 119.293 10.8032   1
   0  -5  -7 128.396 9.70721   3
   0  -5   7 129.352 10.9411   1
   0  -7  -5 126.828 10.8937   3
   0  -7   5 141.648 9.73675   1
   0  -7   5 131.554 10.2626   3
   0   7  -5 144.331 12.2592   2
   0   7   5 150.796 12.3167   1
   5   0  -7 136.081 12.1665   2
   5   0  -7 139.676 8.74040   3
   5   0   7 140.154 10.6753   3
   7  -5   0 121.007 12.0979   3
   5  -7   0 135.463 11.8547   3
   5   7   0 123.195 10.9962   2
   7   0  -5 116.517 10.0008   2
   0  -5  -7 119.443 12.2298   2
  -5   0   7 120.943 17.0113   1
  -7  -5   0 128.480 9.50440   1
  -7   0  -5 120.847 11.1556   1
  -7   0  -5 135.617 8.87442   2
  -7   0   5 113.736 15.2827   1
  -5  -7   0 123.398 11.6603   3
  -5   7   0 113.483 10.1086   1
  -5   7   0 129.495 9.71509   2
  -7   5   0 121.486 11.4322   1
  -5   0  -7 133.994 11.5843   1
  -5   0  -7 114.589 10.4329   2
   7   0   5 122.866 15.4039   3
   0  -7  -5 113.200 11.2307   2
   7   5   0 123.511 9.93856   2
   7   0  -5 117.222 10.0357   3
  -7  -5   0 131.376 12.0886   3
   2  -5   7 333.251 21.5191   1
   2  -5   7 342.912 18.1850   3
   2   5  -7 307.690 22.8355   2
  -7   2   5 375.539 25.8115   1
  -5  -7  -2 377.661 22.8753   3
   7   2  -5 299.837 20.6900   2
  -5  -2   7 354.829 25.4981   1
  -7  -5   2 377.510 20.7360   1
  -5   2  -7 349.172 20.8121   2
  -7  -2  -5 333.260 20.8067   1
  -2  -5  -7 371.738 20.3314   3
  -2   5   7 337.449 23.9226   1
  -2  -7   5 362.857 19.7415   1
  -2  -7   5 318.719 19.6907   3
  -2   7  -5 343.358 19.6547   1
  -2   7  -5 356.506 22.1783   2
  -5   2  -7 364.345 22.4302   1
   2  -7  -5 368.605 22.3139   2
   2  -7  -5 329.246 20.3884   3
  -5   7   2 330.492 20.8043   1
   5  -7   2 319.171 21.1737   3
   2   7   5 351.470 18.9542   1
   5  -2  -7 322.328 22.3810   2
   5  -2  -7 339.573 18.2398   3
   7  -2   5 349.175 22.3854   3
   7  -5  -2 346.159 22.5494   3
  -7  -2  -5 376.277 25.1331   3
  -5   7   2 345.559 19.8298   2
   7   5   2 329.014 19.5507   2
  -7   5  -2 322.645 21.6244   1
  -7  -2  -5 349.377 18.7775   2
   7   2  -5 335.939 21.6033   3
   5   7  -2 370.088 21.9525   2
  -7  -5   2 369.507 22.3925   3
   2   7  -5 309.352 21.5958   2
   7   5  -2 350.352 20.3134   2
   7  -2  -5 355.213 20.5722   2
   2   5   7 334.791 20.3894   1
   7  -2  -5 359.453 20.7023   3
   5   2  -7 369.097 18.6218   3
  -5  -2  -7 308.003 21.7653   3
   5   7   2 343.317 21.2081   2
  -2   7   5 312.000 21.5082   1
  -7  -5  -2 339.030 18.9460   1
  -7  -5  -2 345.443 22.3258   3
   5  -7  -2 329.351 21.5289   3
   7  -5   2 355.184 22.9006   3
  -7  -2   5 346.785 23.7647   1
  -7   2  -5 341.315 21.9944   1
  -5  -2  -7 329.770 20.7101   1
  -5  -2  -7 375.393 21.7380   2
  -5  -7   2 376.651 22.2862   3
  -5   7  -2 349.197 20.5197   1
  -5   7  -2 344.655 19.4373   2
   2  -7   5 340.699 20.1775   3
  -5   2   7 355.278 25.9597   1
  -2  -7  -5 342.722 21.7451   2
  -2  -5   7 341.817 21.2784   1
  -2  -5   7 354.146 17.9589   3
  -2   5  -7 351.971 24.4344   2
   2  -5  -7 347.566 19.0484   3
  -2  -7  -5 329.918 20.9464   3
   5  -2   7 351.565 19.0687   3
  -7   5   2 348.118 23.2930   1
   2  -5  -7 325.918 23.2366   2
   5   2  -7 326.790 22.4574   2
   5  -4  -7 217.558 18.0833   2
  -7  -4  -5 249.116 18.9259   3
   4   5  -7 240.495 19.3825   2
   7   4  -5 241.719 17.7478   2
  -5  -4   7 240.347 19.9372   1
   4   7   5 249.354 18.2035   2
   4  -7  -5 261.307 17.9682   2
   4  -7  -5 257.404 17.3130   3
   5  -7   4 219.674 16.5582   3
   7  -5  -4 244.512 17.9374   3
  -4  -7   5 253.849 17.2226   1
  -7  -5   4 262.891 18.1348   1
   5  -4  -7 262.805 15.7090   3
  -4   5   7 252.101 20.3036   1
  -7  -4  -5 246.779 16.1718   1
  -4   7  -5 246.500 17.7633   2
  -4  -5  -7 272.789 17.7097   3
  -4  -7   5 249.649 16.5524   3
   7   5   4 256.472 16.4830   2
   7  -4   5 246.606 17.6946   3
  -7   4   5 249.591 21.2912   1
  -5  -7  -4 228.438 17.6346   3
  -7   5  -4 239.427 17.8421   1
  -5  -4   7 258.750 15.2838   3
  -5   4  -7 245.842 17.9480   1
  -5   7   4 257.747 19.3524   1
  -4  -5  -7 223.448 17.1865   2
   4  -5   7 257.590 15.3971   3
  -5   4  -7 255.234 17.8767   2
   7  -5  -4 230.541 14.9133   2
  -4   7  -5 266.819 17.0078   1
   5   7  -4 236.214 17.7223   2
  -7  -5   4 263.292 17.9441   3
  -4   5  -7 258.995 19.6545   2
   4  -5  -7 240.153 15.1748   3
  -5  -4  -7 251.673 17.5008   2
   5  -4   7 258.485 15.6792   3
   4   5   7 242.677 16.1039   1
   5  -7  -4 236.043 16.3222   2
  -4  -5   7 232.347 18.3394   1
  -7  -4   5 258.583 17.3788   3
   4  -5  -7 240.840 19.3291   2
   5   7   4 275.355 18.4349   2
  -7  -4   5 252.346 18.5393   1
   7  -4  -5 242.641 17.1047   3
  -7   4  -5 238.404 17.9029   1
   5   4  -7 237.563 19.1194   2
   4   7  -5 250.960 18.5282   2
  -5  -4  -7 256.518 18.3871   3
  -7   5   4 207.726 19.4856   1
  -5  -4  -7 258.850 16.5491   1
  -4   7   5 185.776 17.5548   1
   7   5  -4 245.570 17.1451   2
  -4  -5   7 249.792 14.7431   3
   7  -4  -5 209.984 15.7584   2
  -4   5  -7 249.877 17.5357   1
  -5  -7   4 244.928 17.1185   3
  -5   7  -4 238.681 16.4126   1
  -5   7  -4 269.863 17.2360   2
   5  -7  -4 254.881 17.8776   3
   4  -7   5 250.984 16.7055   3
  -7  -5  -4 255.717 15.6511   1
  -7  -5  -4 245.803 18.5521   3
   7  -5   4 256.666 18.3449   3
  -4  -7  -5 212.649 16.7838   3
  -5   4   7 240.380 20.0961   1
  -1   7  -6 107.812 11.2666   2
  -1  -6  -7 112.653 9.73243   3
  -1  -6  -7 100.238 13.0367   2
  -6   7   1 126.194 9.07647   2
  -7  -1  -6 95.2825 10.0981   1
  -7  -6   1 111.541 8.35500   1
  -7  -6   1 111.473 11.4192   3
  -7   6  -1 102.456 10.4082   1
   1   6  -7 114.656 14.9240   2
  -1  -7   6 116.827 9.42635   1
  -1  -7   6 100.056 8.99281   3
  -6  -1   7 89.1499 14.0071   1
  -6   1  -7 105.189 10.7078   1
  -6   1  -7 119.338 9.67838   2
   1  -7  -6 114.683 10.1079   3
  -7  -1  -6 110.523 8.81164   2
   1   7   6 120.753 9.99903   1
  -7   1   6 92.2902 13.6867   1
  -6  -7  -1 129.018 15.2588   3
   6   1   7 106.794 13.1929   3
   7  -6  -1 94.8280 12.6339   3
   1  -6   7 124.196 10.4244   1
  -6   7   1 110.831 10.3406   1
   6  -1  -7 114.852 10.9338   2
   6  -1  -7 106.125 8.38066   3
   7   1  -6 92.5575 8.84858   3
   6  -7   1 91.1429 11.9438   3
   6   7  -1 117.012 10.6597   2
   7   6   1 112.098 9.88697   2
   1  -7  -6 112.377 11.5050   2
   1  -6   7 106.685 8.56205   3
   7  -1   6 116.093 11.4425   3
   7   1  -6 103.741 10.1812   2
  -1   6   7 90.8974 12.6789   1
  -1  -7  -6 118.449 11.5896   2
  -6   7  -1 113.000 10.3600   1
  -1   7   6 123.910 12.2058   1
  -7  -6  -1 88.6596 12.0931   3
  -6   1   7 125.244 17.0310   1
   1  -7   6 89.3567 8.55941   1
  -6  -1  -7 123.857 10.1919   2
   1   7  -6 110.757 11.5282   2
  -7   1  -6 117.471 8.66735   2
  -1  -6   7 99.7673 9.46989   1
  -7  -6  -1 101.637 7.78941   1
   1  -6  -7 95.3813 13.1850   2
   1  -6  -7 117.186 9.62458   3
  -6   7  -1 113.078 8.36197   2
   1  -7   6 105.287 9.17409   3
  -7   6   1 104.834 10.6837   1
   1   6   7 110.513 9.90954   1
   6  -7  -1 91.4754 12.1849   3
   7  -6   1 112.701 14.1520   3
   7   6  -1 104.888 9.74785   2
   6   7   1 120.610 10.6734   2
   7  -1  -6 107.145 9.98164   2
   7  -1  -6 98.7476 8.98960   3
  -6  -7   1 114.041 11.4174   3
  -1  -7  -6 111.205 10.2683   3
  -6  -1  -7 94.2582 9.98464   1
   7   1   6 105.099 14.8568   3
  -1  -6   7 115.159 8.67409   3
  -1   6  -7 125.006 15.7981   2
  -7  -1   6 105.199 14.1938   1
   6   1  -7 108.255 8.30982   3
  -7   1  -6 100.348 10.4565   1
   6  -1   7 105.992 9.65169   3
   6   1  -7 109.489 11.0075   2
  -3  -7   6 5.23572 2.44700   1
  -3  -7   6 5.43812 2.63155   3
  -3   7  -6 1.62092 1.95699   1
  -3   7  -6 0.56186 1.95186   2
  -6   3  -7 5.67736 2.13614   2
  -7  -6   3 10.5094 3.20975   1
  -7  -6   3 3.81931 3.27732   3
  -7   6  -3 1.17602 2.16981   1
   3  -7  -6 3.21280 2.77820   3
  -7   3   6 6.43443 4.26051   1
  -7  -3  -6 6.47616 2.98352   1
   3  -7  -6 5.27380 3.36772   2
  -6  -3   7 5.94601 3.76415   1
  -6   3  -7 1.49081 2.57776   1
  -7  -3  -6 4.35348 2.42546   2
  -7  -3  -6 4.80631 3.71324   3
  -6  -7  -3 6.46414 3.64969   3
   7   6   3 5.29943 2.68796   2
  -3   6   7 7.54846 4.01187   1
  -6   7   3 7.10624 3.50625   1
  -6   7   3 8.63586 3.26035   2
  -3  -6  -7 8.57246 3.81824   2
   6  -3  -7 2.85870 2.17732   3
   7  -6  -3 3.19218 2.51293   3
   6  -3  -7 2.88035 2.95301   2
   7  -3   6 5.48450 2.86873   3
   7   3  -6 8.50246 3.69599   2
   6  -7   3 5.35970 3.41983   3
  -3  -6  -7 7.53675 2.91883   3
   3   7   6 6.39942 1.76990   1
   6   7  -3 6.47001 3.55268   2
   3  -6   7 2.95131 2.11531   3
   3   6  -7 5.47531 4.42945   2
   3   6   7 5.28924 2.21504   1
   6  -7  -3 4.88617 3.05104   3
   3  -6  -7 3.92749 3.68171   2
   3  -6  -7 4.03149 1.83645   3
   6   7   3 3.28415 2.64702   2
   7  -3  -6 6.77524 3.02492   2
   7  -3  -6 3.40062 2.10792   3
  -6  -3  -7 7.14404 4.25475   3
   6  -3   7 10.3882 3.20155   3
   7  -6   3 3.87433 3.26456   3
   6   3  -7 5.99749 4.13651   2
  -6  -3  -7 9.08318 3.57767   2
  -7  -3   6 5.47359 2.99893   3
  -7   3  -6 2.66840 2.95430   1
   3  -7   6 5.34990 2.58008   3
  -3  -6   7 6.13924 2.39721   3
  -6  -3  -7 5.93831 2.77524   1
  -3   7   6 6.49037 3.62305   1
  -3   6  -7 3.02916 2.72394   1
   7   6  -3 12.4871 4.11543   2
  -3   6  -7 2.24414 3.21458   2
   3   7  -6 5.52108 3.81870   2
  -6  -7   3 6.42943 3.41534   3
  -6   7  -3 1.27125 2.08157   1
  -7   6   3 5.65646 3.68736   1
  -3  -7  -6 5.13454 3.10065   2
  -3  -7  -6 2.32767 2.19815   3
   6   3  -7 7.55719 3.21198   3
  -3  -6   7 6.96117 2.93540   1
  -7  -3   6 6.24361 3.59680   1
  -7  -6  -3 9.91392 2.40617   1
  -7  -6  -3 8.28419 4.04986   3
  -6   3   7 7.24855 4.76401   1
   6  -5  -7 178.480 13.4395   3
   5   6  -7 156.101 15.7138   2
   6  -7   5 186.976 14.7343   3
   6   7  -5 167.958 15.1629   2
   7  -6  -5 183.291 14.8869   3
   5  -7  -6 150.462 13.5501   3
  -6   7   5 144.736 15.3429   1
   7  -5   6 178.750 14.0600   3
   7   5  -6 185.958 15.9125   2
  -7  -6   5 183.617 14.4103   3
  -7  -5  -6 179.103 13.0042   1
  -7  -5  -6 149.403 12.5166   2
  -7  -5  -6 146.347 14.4914   3
   7  -6  -5 156.370 12.8422   2
  -6  -5   7 179.699 12.9885   3
  -6  -5   7 157.750 15.2076   1
  -7   5   6 159.105 16.9523   1
  -6  -7  -5 148.108 14.1209   3
  -6   5  -7 175.980 13.8313   2
   5   7   6 183.929 15.6013   2
   6  -5  -7 142.350 14.3761   2
  -5  -6  -7 175.826 14.6235   2
  -5  -6  -7 176.591 14.9093   3
  -5   7  -6 184.687 14.4508   1
  -5   7  -6 174.769 15.2527   2
  -5  -7   6 174.184 14.1521   1
   5  -7  -6 177.814 14.9272   2
  -5   6   7 172.224 16.2339   1
   7   6   5 185.265 14.2746   2
  -6   5  -7 163.354 14.5641   1
   5  -6   7 171.232 12.9486   3
  -5  -7   6 176.823 13.4889   3
  -7  -6   5 187.650 14.5220   1
  -7   6  -5 173.999 14.6793   1
   5  -6  -7 177.877 13.5780   3
  -7   6   5 140.276 18.4470   1
  -6  -5  -7 174.444 12.9744   1
  -6  -5  -7 169.643 13.9121   2
  -6  -5  -7 154.027 14.8855   3
  -7   5  -6 159.942 14.4642   1
  -7  -5   6 170.692 13.6453   3
   6  -7  -5 156.192 14.2038   3
  -6  -7   5 165.327 13.5768   3
  -6   5   7 164.247 16.4618   1
  -5  -7  -6 156.843 14.2902   3
  -5   6  -7 183.237 14.9023   1
  -7  -6  -5 176.442 15.4140   3
  -5  -6   7 178.810 16.1354   1
  -5  -6   7 152.939 12.0319   3
  -5   7   6 194.679 17.1930   1
  -5   6  -7 161.241 14.9333   2
   7  -5  -6 160.561 13.7801   2
   5  -7   6 157.241 13.2272   3
   5   7  -6 169.399 15.7594   2
  -6   7  -5 194.038 14.7479   1
   7  -5  -6 172.417 14.1291   3
   6  -7  -5 203.035 14.8127   2
   6  -5   7 148.462 12.3614   3
   6   5  -7 149.049 15.3653   2
  -7  -5   6 165.119 14.6105   1
   6   7   5 177.884 14.7507   2
   7  -6   5 189.243 14.9222   3
   7   6  -5 183.059 15.2519   2
   5  -6  -7 178.728 15.9347   2
  -7  -7   0 10.7032 4.47098   3
  -7   0  -7 11.3031 4.13793   1
  -7   0  -7 13.8692 3.76936   2
  -7   0   7 4.26436 3.27064   1
  -7   7   0 6.38332 3.16565   1
   0  -7  -7 7.64795 4.10178   2
   0  -7  -7 11.4142 3.62221   3
   0  -7   7 13.5946 3.66070   1
   0  -7   7 13.1490 3.63293   3
   0   7  -7 9.99423 4.82074   2
   0   7   7 9.54446 3.79352   1
   7  -7   0 3.39495 3.09933   3
   7   0  -7 14.7796 4.60880   2
   7   0  -7 10.4725 3.04242   3
   7   0   7 4.72158 3.23830   3
   7   7   0 9.36667 3.48656   2
  -7  -7  -2 406.038 26.4079   3
  -7  -7   2 404.148 25.7862   3
  -7  -2  -7 408.470 25.2213   1
  -7  -2  -7 442.793 24.1143   2
  -7  -2   7 395.861 27.6294   1
  -7   2  -7 409.435 26.1011   1
  -7   2  -7 375.924 22.4674   2
  -7   2   7 428.559 28.8894   1
  -7   7  -2 401.822 25.1421   1
  -7   7   2 429.477 26.5148   1
  -2  -7  -7 407.636 26.0238   2
  -2  -7  -7 444.527 25.1886   3
  -2  -7   7 416.128 24.3775   1
  -2  -7   7 395.900 22.3761   3
  -2   7  -7 397.431 27.4398   2
  -2   7   7 441.795 27.8395   1
   2  -7  -7 443.355 27.6466   2
   2  -7  -7 421.530 23.8904   3
   2  -7   7 411.960 24.7118   1
   2  -7   7 424.155 22.7559   3
   2   7  -7 369.534 26.2757   2
   2   7   7 396.992 23.3361   1
   7  -7  -2 386.037 26.1770   3
   7  -7   2 424.157 26.6583   3
   7  -2  -7 414.469 25.1816   2
   7  -2  -7 442.419 23.0839   3
   7  -2   7 405.814 24.1756   3
   7   2  -7 405.536 25.4847   2
   7   2  -7 409.865 22.9362   3
   7   2   7 384.515 28.0100   3
   7   7  -2 388.199 24.2301   2
   7   7   2 428.209 24.5498   2
  -7  -7  -4 5.06392 3.01485   3
  -7  -7   4 2.16170 2.37754   3
  -7  -4  -7 0.89941 2.05551   1
  -7  -4  -7 0.69191 1.68566   2
  -7  -4  -7 1.15362 2.72201   3
  -7  -4   7 6.16444 3.36931   1
  -7  -4   7 4.05352 2.29366   3
  -7   4  -7 2.07611 2.91459   1
  -7   4   7 2.43873 3.95260   1
  -7   7  -4 4.45830 3.12505   1
  -7   7   4 2.24236 3.33386   1
  -4  -7  -7 4.25892 2.88592   2
  -4  -7  -7 2.26566 2.34729   3
  -4  -7   7 5.01544 2.57597   1
  -4  -7   7 2.73221 1.92431   3
  -4   7  -7 4.32596 2.80973   1
  -4   7  -7 4.15215 2.73560   2
  -4   7   7 0.79415 2.35044   1
   4  -7  -7 7.71245 4.10780   2
   4  -7  -7 4.07305 2.45012   3
   4  -7   7 3.69135 2.46422   3
   4   7  -7 4.52456 3.93685   2
   7  -7  -4 4.01245 3.66043   3
   7  -7   4 2.64916 2.90673   3
   7  -4  -7 8.54871 4.04318   2
   7  -4  -7 1.80157 1.89498   3
   7  -4   7 5.34117 2.67482   3
   7   4  -7 0.20968 2.06425   2
   7   7  -4 5.33030 3.22237   2
   7   7   4 3.38591 2.68203   2
  -7  -7  -6 10.3931 4.56422   3
  -7  -7   6 7.02792 3.27252   3
  -7  -6  -7 6.35034 3.89591   3
  -7  -6   7 11.0549 3.75940   1
  -7  -6   7 10.4750 3.69171   3
  -7   6  -7 10.4959 4.66049   1
  -7   6   7 7.17240 4.64004   1
  -7   7  -6 8.06883 3.90046   1
  -7   7   6 7.45384 4.37821   1
  -6  -7  -7 9.31955 4.06784   3
  -6  -7   7 14.4661 4.15110   1
  -6  -7   7 9.70636 3.54129   3
  -6   7  -7 8.44326 3.94677   1
  -6   7   7 0.53550 2.68664   1
   6  -7  -7 12.3020 4.88137   2
   6  -7  -7 10.5844 3.69343   3
   6  -7   7 5.95205 3.05639   3
   6   7  -7 6.75056 4.62783   2
   6   7   7 10.4638 4.88702   2
   7  -7  -6 12.3295 4.29271   2
   7  -7  -6 9.14165 3.68450   3
   7  -7   6 8.36793 3.50607   3
   7  -6  -7 9.54079 3.76497   2
   7  -6  -7 13.3436 4.04215   3
   7  -6   7 3.04405 2.65418   3
   7   6  -7 9.57805 4.36223   2
   7   6   7 6.34769 2.04464   1
   7   7  -6 4.92511 4.01515   2
   7   7   6 9.53877 4.36520   2
  -8   0   0 2486.34 111.773   1
   0  -8   0 2556.70 108.240   3
   0   0  -8 2508.10 112.973   2
   0   0   8 2442.38 111.773   1
   0   8   0 2472.46 109.136   2
   8   0   0 2691.47 111.212   3
   1  -1   8 572.213 30.3045   1
   1   1  -8 577.637 32.6069   2
   1   1   8 536.329 29.7118   1
   1   8  -1 546.634 29.3427   2
   1   8   1 498.142 28.7674   2
   8  -1  -1 533.552 30.0938   3
   8  -1   1 601.126 32.3230   3
   8   1  -1 562.674 24.7239   2
   8   1  -1 531.030 31.1365   3
   8   1   1 515.020 23.2845   2
   8   1   1 584.748 33.0353   3
   1  -8  -1 497.241 28.5754   3
   1  -8   1 557.792 29.0075   3
   1  -1  -8 511.286 31.5071   2
  -1  -1  -8 550.447 32.0017   2
  -1  -1   8 495.772 29.5198   1
  -1   1  -8 491.505 31.0932   2
  -1   1   8 567.140 30.9408   1
  -1   8  -1 503.591 24.0788   1
  -1   8  -1 465.389 27.7832   2
  -1   8   1 566.794 23.9546   1
  -1   8   1 514.205 28.5162   2
  -1  -8   1 478.084 28.3744   3
  -8  -1  -1 538.504 29.3950   1
  -8  -1   1 494.319 29.6114   1
  -8   1  -1 487.032 29.3429   1
  -8   1   1 574.368 31.4338   1
  -1  -8  -1 544.101 29.4965   3
  -2   0   8 9.81617 4.19817   1
   0  -8  -2 14.9050 4.23205   3
   0  -8   2 12.8276 4.25938   3
   0   8  -2 15.1324 4.25225   2
   0   8   2 13.5267 4.31702   2
   2   0  -8 14.1445 5.33312   2
   2   0   8 13.3046 4.17409   1
   8  -2   0 10.0876 3.96847   3
   8   2   0 17.1911 3.00951   2
   8   0  -2 13.4796 2.57683   2
   8   0  -2 15.0225 4.60413   3
   8   0   2 12.8554 5.15369   3
   0  -2   8 16.5603 4.84533   1
   0   2  -8 13.2087 4.74072   2
  -2   8   0 19.7795 4.79449   2
   2  -8   0 11.6571 4.28787   3
  -8  -2   0 8.94813 3.24843   1
  -8  -2   0 14.6340 5.19974   3
  -8   2   0 12.3777 4.32685   1
  -2   0  -8 12.3400 4.34611   2
   0   2   8 17.5544 4.88806   1
  -8   0  -2 15.3091 4.52470   1
  -8   0   2 12.6709 4.76252   1
  -2  -8   0 9.07418 3.77357   3
  -2   8   0 11.4041 2.50521   1
   2   8   0 14.8803 4.68332   2
   0  -2  -8 13.0467 5.15613   2
  -8   2   2 1405.73 70.6641   1
  -8   2  -2 1321.51 67.7982   1
  -8  -2  -2 1525.84 67.5641   1
  -8  -2  -2 1583.28 70.0713   3
  -8  -2   2 1437.45 68.9869   1
   2  -2  -8 1377.56 69.9707   2
   2  -2   8 1568.18 69.1934   1
   2   2  -8 1547.04 70.4895   2
   2   2   8 1411.70 67.5675   1
   2   8  -2 1528.06 67.1958   2
   8  -2  -2 1453.19 67.0982   3
   8  -2   2 1488.93 69.3587   3
   8   2  -2 1470.03 63.0880   2
   8   2   2 1415.40 61.4861   2
  -2   8   2 1451.29 66.2258   2
  -8  -2   2 1380.24 67.0429   3
  -2   8   2 1513.69 63.3819   1
  -2   8  -2 1378.80 63.0390   1
   2  -8  -2 1460.79 66.2514   3
  -2  -8  -2 1476.38 66.6523   3
  -2  -8   2 1336.30 65.2251   3
  -2  -2  -8 1507.17 69.3556   2
  -2  -2   8 1406.53 68.5932   1
  -2   2  -8 1407.46 69.7643   2
  -2   2   8 1466.38 70.1211   1
   2  -8   2 1492.56 66.1772   3
  -2   8  -2 1363.71 65.3198   2
  -1   8  -3 513.261 28.1670   2
   3  -1  -8 537.623 31.1735   2
  -1   3   8 486.126 29.7014   1
  -8  -1  -3 508.575 28.7727   1
   1  -3   8 514.482 29.3083   1
   1   3  -8 520.259 31.6924   2
  -1  -3  -8 534.843 31.0677   2
   8   3   1 498.847 24.5270   2
   3  -8   1 474.733 27.9077   3
   3   8  -1 519.202 28.8737   2
   1  -8  -3 497.648 28.1354   3
  -8   3  -1 536.223 29.9969   1
  -1  -8   3 514.220 28.0527   3
   8  -1   3 468.831 30.3364   3
   8   1  -3 526.500 25.8790   2
   8   1  -3 519.013 29.4564   3
  -8   1   3 473.181 31.7029   1
  -3  -8  -1 516.115 29.0267   3
   1   8   3 467.653 28.2555   2
  -3  -1   8 501.344 30.6441   1
  -3   8   1 508.642 27.4052   2
  -3   8   1 541.127 25.8404   1
   3   1   8 532.179 29.4235   1
   3   1   8 517.808 24.1561   3
   8  -3  -1 462.027 29.2805   3
  -1   8  -3 537.191 24.9796   1
  -3   1  -8 488.354 29.6638   2
  -8  -3   1 509.865 28.4271   1
  -8  -3   1 483.373 29.3262   3
  -1  -8  -3 485.219 28.2759   3
   8  -1  -3 525.683 28.7128   3
  -3   8  -1 506.784 25.4669   1
  -8  -1   3 519.011 31.6663   1
  -1   8   3 522.757 24.5564   1
   8   1   3 528.337 23.5830   2
   3  -8  -1 472.831 27.9430   3
  -3   1   8 606.808 32.9637   1
   8  -1  -3 539.881 24.9952   2
  -3   8  -1 511.662 27.2093   2
   3   1  -8 491.571 30.4022   2
   3  -1   8 515.079 23.0739   3
   1   3   8 548.027 29.3551   1
  -1  -3   8 505.353 28.9651   1
  -1   3  -8 539.194 32.0356   2
   8   3  -1 500.936 24.9943   2
   1  -3  -8 512.087 31.4587   2
   8   1   3 488.970 31.9001   3
  -3  -8   1 493.828 28.4680   3
   3   8   1 500.455 28.5469   2
  -8   3   1 497.296 30.2355   1
  -3  -1  -8 499.101 29.4966   2
   8  -3   1 481.590 30.1933   3
  -8   1  -3 504.025 29.1225   1
  -8  -3  -1 506.156 27.8089   1
  -8  -3  -1 533.042 30.4953   3
  -1   8   3 480.460 28.1343   2
   1   8  -3 493.658 28.4044   2
   1  -8   3 495.115 27.6997   3
   3  -3  -8 1605.67 78.0683   2
  -3   8   3 1663.21 73.9605   2
   8  -3  -3 1673.61 74.4021   3
   8  -3   3 1585.94 76.0863   3
   8   3  -3 1701.84 72.3862   2
   8   3   3 1591.52 70.1397   2
  -3   3  -8 1619.43 75.6590   1
  -8  -3   3 1647.00 75.0147   3
  -3   3   8 1629.33 79.7695   1
  -3   8  -3 1625.84 72.0504   1
  -3  -8  -3 1638.31 74.4815   3
  -3   8   3 1710.88 72.9612   1
  -3  -3  -8 1698.17 76.0638   2
  -3   8  -3 1601.88 73.2494   2
  -3  -3   8 1681.46 77.4378   1
  -8   3   3 1601.61 79.9947   1
  -8  -3  -3 1648.90 76.5902   3
  -3  -8   3 1650.93 73.1850   3
   3   8  -3 1733.62 75.3470   2
  -8   3  -3 1639.42 76.4641   1
   3   3   8 1616.76 75.1070   1
   3   8   3 1649.31 75.0355   2
  -3   3  -8 1440.35 76.2044   2
   3  -8  -3 1536.12 73.1200   3
   3  -8   3 1668.90 73.2810   3
  -3  -3  -8 1385.19 70.5437   3
   3  -3   8 1598.49 67.6830   3
   3   3  -8 1705.70 78.4304   2
  -8  -3   3 1565.97 76.9579   1
  -8  -3  -3 1690.69 74.4343   1
   8   0  -4 25.2313 4.64785   2
   0   8   4 22.4377 5.81431   2
   8   0   4 21.2842 6.88885   3
  -8  -4   0 26.6807 6.39798   3
   8   0  -4 12.6204 4.14605   3
   0   8  -4 17.2800 4.75057   2
  -4   0  -8 26.7674 6.15178   2
   4   8   0 26.5255 6.00524   2
   0  -8  -4 21.6086 5.21505   3
   0  -8   4 19.3534 3.24675   1
   0  -8   4 17.2865 4.67169   3
  -8  -4   0 26.1489 5.12339   1
  -8   0  -4 26.5451 5.98685   1
  -8   4   0 15.9784 5.50851   1
  -4   0  -8 17.2361 4.75693   1
   4  -8   0 23.1792 5.90738   3
  -4   0   8 23.5547 7.01447   1
   8   4   0 20.2959 4.03922   2
   0   4   8 20.2838 5.21261   1
  -8   0   4 18.6653 6.39397   1
  -4  -8   0 29.8376 6.89924   3
  -4   8   0 23.4679 4.59829   1
  -4   8   0 28.5004 5.55759   2
   0  -4  -8 16.2406 5.90361   2
   0  -4   8 27.1737 6.01844   1
   0   4  -8 14.1337 5.59558   2
   4   0   8 27.6624 4.34454   3
   8  -4   0 20.7926 6.21359   3
   4   0  -8 30.2222 7.30750   2
  -8  -2  -4 10.7186 4.52441   3
  -4   2  -8 22.2237 5.49579   2
  -8   2   4 14.3403 5.82885   1
  -4  -8  -2 10.0670 4.04168   3
   8   2  -4 13.1934 4.25577   2
   4   2   8 21.1465 5.23892   1
   2  -8  -4 26.5937 5.88784   3
  -4   8   2 17.3730 4.23642   1
  -4   8   2 14.6950 4.06372   2
  -2  -4  -8 15.4817 4.96231   2
  -2  -4  -8 15.3319 3.51360   3
   8   4   2 24.8349 4.51868   2
  -2  -8   4 27.7864 5.81175   3
  -8  -2  -4 14.7164 4.19262   1
  -4   2  -8 22.9276 5.69668   1
   2  -4   8 13.6635 4.18482   1
   2   4  -8 12.7652 5.19033   2
  -8  -4   2 22.4772 5.33880   1
  -8  -4   2 30.7974 7.48646   3
   4  -8   2 13.3722 4.56461   3
   4   8  -2 12.9060 4.52917   2
  -2   8  -4 24.3409 5.45325   2
   8  -4  -2 29.8731 6.72219   3
   2   8   4 32.8816 7.23139   2
   4   2   8 38.8644 7.25990   3
  -4  -2   8 27.2881 7.49384   1
   8  -2   4 15.1745 5.43906   3
  -2   4   8 8.18865 4.35935   1
   4  -2  -8 30.4830 8.05157   2
  -8   4  -2 23.8162 6.24254   1
   8   2  -4 9.22318 3.30673   3
  -2   8  -4 21.8748 4.19069   1
   2   4   8 29.6315 6.00197   1
   4  -8  -2 35.8634 7.35252   3
  -8   2  -4 17.9232 5.39670   1
   4   8   2 34.3213 6.97115   2
  -4  -8   2 23.8003 5.72712   3
  -2   8   4 15.0140 4.54739   2
  -2  -8  -4 11.4534 4.24495   3
  -4   8  -2 29.4383 5.15812   1
   2   8  -4 15.8466 5.01667   2
  -8   4   2 23.2670 7.17212   1
  -4  -2  -8 12.3927 4.11858   2
   2  -4  -8 21.2818 6.70079   2
   8   4  -2 13.4058 3.66449   2
  -2   8   4 18.7085 4.37450   1
   8   2   4 27.9275 4.38161   2
  -4   8  -2 24.1836 5.07948   2
   8  -2  -4 21.6476 5.41876   3
  -8  -2   4 32.5798 7.68002   1
   8  -4   2 17.7165 5.83189   3
  -8  -4  -2 20.2704 4.50075   1
  -2  -4   8 27.7050 5.98003   1
  -2   4  -8 20.1760 6.34144   2
   2  -8   4 13.4916 4.35107   3
   4  -2   8 13.1758 2.88244   3
   4   2  -8 7.57126 4.13146   2
  -4   2   8 16.8068 6.40964   1
  -8  -4  -2 14.2292 5.23452   3
   8  -4   4 1206.19 60.0953   3
   4  -8   4 1288.30 58.9514   3
   4   8  -4 1234.62 60.0401   2
   4   8   4 1251.31 60.3222   2
  -8  -4   4 1264.84 61.3458   1
  -8  -4   4 1323.66 60.1713   3
  -8   4  -4 1262.58 61.4652   1
   4  -4  -8 1224.12 62.4744   2
  -4   4   8 1215.09 65.7625   1
  -4   8  -4 1277.47 57.9509   1
   8  -4  -4 1218.99 58.9029   3
  -4  -4  -8 1087.80 57.6640   3
   8   4  -4 1271.38 58.4842   2
   8   4   4 1231.50 56.1883   2
  -8  -4  -4 1232.57 61.4174   3
   4  -8  -4 1304.79 59.5335   3
  -4   4  -8 1230.18 60.3247   1
  -4   4  -8 1250.12 61.9746   2
   4  -4   8 1267.09 54.4524   3
   4   4  -8 1254.22 63.4458   2
   4   4   8 1233.43 59.3718   1
  -4   8  -4 1302.21 59.4094   2
  -4   8   4 1260.95 60.2325   1
  -4   8   4 1234.01 59.3428   2
  -4  -4   8 1200.07 62.4672   1
  -4  -4  -8 1217.48 60.0244   2
  -4  -8   4 1243.20 58.1590   3
  -8   4   4 1159.26 64.8907   1
  -4  -8  -4 1241.85 59.7591   3
  -8  -4  -4 1226.33 58.2499   1
   1  -5   8 36.7386 7.08021   1
  -5   8   1 45.9212 7.00586   1
  -5   8   1 59.5237 7.99676   2
  -1   5   8 44.9364 8.53415   1
  -1  -8   5 47.6043 7.55581   3
   5  -1  -8 42.8637 8.72266   2
  -8   1   5 42.4126 9.44782   1
   5   8  -1 42.0010 7.61405   2
  -5   1  -8 47.1895 7.96218   2
   8   5   1 52.3307 7.26269   2
  -8  -1  -5 48.9087 8.27418   1
  -8  -5   1 54.1683 7.49371   1
   8   1  -5 39.1923 6.87835   2
   8   1  -5 43.2865 7.57997   3
   5   1   8 36.7366 6.56699   3
  -1  -5  -8 52.0787 6.94723   3
  -5   1  -8 42.3417 7.82102   1
   1  -8  -5 44.1035 8.18381   2
  -8  -5   1 42.4151 8.71147   3
  -1   8  -5 41.2380 8.33375   2
   8  -5  -1 50.7594 9.52816   3
   1   5  -8 34.0316 9.00525   2
  -5  -1   8 42.2155 9.91768   1
   8  -1   5 44.4873 9.50874   3
  -5  -8  -1 50.5069 9.13020   3
  -1  -8   5 51.3400 5.09990   1
   5  -8   1 42.1322 8.19736   3
   1  -8  -5 43.7905 7.54522   3
  -1  -5  -8 34.7905 7.80052   2
  -8   5  -1 58.2880 9.32427   1
   8  -1  -5 52.7190 7.90396   3
   5  -8  -1 42.9383 8.22674   3
   5  -1   8 44.3124 6.02859   3
  -5  -1  -8 41.9194 7.53597   2
  -5  -1  -8 34.7466 6.87525   1
   1  -8   5 42.4124 7.19216   3
  -8  -5  -1 45.0438 9.01180   3
  -5   8  -1 46.9429 7.03245   1
   1   8  -5 45.4035 8.56762   2
   8  -1  -5 60.8798 7.80799   2
   8   1   5 37.4111 9.15045   3
   5   8   1 44.5983 7.80241   2
   8  -5   1 46.6999 9.16581   3
   8   5  -1 48.1842 6.89850   2
   1  -5  -8 62.2863 10.9608   2
  -1  -8  -5 45.9464 7.94612   3
  -5  -8   1 53.9706 9.23244   3
  -8   5   1 34.7322 7.81550   1
  -5   8  -1 52.0396 7.29734   2
  -1   8   5 38.3349 7.00893   1
  -8  -1   5 38.4237 8.73158   1
  -8   1  -5 46.7539 8.34311   1
  -5   1   8 33.4126 8.97142   1
   5   1  -8 49.9271 9.53271   2
   1  -8   5 46.3627 6.24267   1
   1   5   8 51.8442 8.28487   1
  -1  -5   8 59.3217 8.90949   1
  -1   5  -8 43.7418 9.91175   2
  -8  -5  -1 42.8195 6.40713   1
   3  -5   8 177.136 11.6512   3
   3   5  -8 178.402 17.0930   2
  -8   5  -3 190.845 15.8586   1
  -8  -5   3 181.306 14.4343   1
   5  -8   3 180.959 15.0146   3
  -5   3  -8 178.118 15.0043   1
   3  -8  -5 184.483 14.6496   3
  -5  -3   8 207.915 18.6519   1
  -8  -3  -5 192.180 14.3561   1
  -8  -3  -5 155.098 16.2727   3
   3  -8  -5 189.644 15.3337   2
   8   5   3 185.000 13.1665   2
  -5   3  -8 204.155 15.3441   2
  -8   3   5 167.730 17.5584   1
  -5  -8  -3 180.513 15.4531   3
   8   3  -5 190.172 14.9326   2
   5   8  -3 172.677 14.8081   2
   3   8   5 187.521 15.8860   2
  -5   8   3 178.280 14.2417   1
  -5   8   3 196.535 14.1923   2
  -3  -5  -8 166.700 15.0030   2
  -3  -5  -8 189.472 14.0720   3
   5  -3  -8 183.345 16.3769   2
  -8  -5   3 189.457 15.6183   3
  -3  -8   5 194.550 14.2496   3
  -3   5   8 161.324 17.1264   1
  -3   8  -5 190.559 15.3792   2
  -3   8  -5 191.970 13.3270   1
   8  -5  -3 177.728 15.4101   3
   8  -3   5 194.730 16.0943   3
   8   5  -3 177.458 13.6648   2
   5   3  -8 195.569 17.0995   2
  -5   8  -3 197.679 13.9372   2
  -5  -3  -8 190.741 15.0561   2
  -5  -3  -8 143.480 14.2821   3
   3  -8   5 180.860 13.9967   3
   3   8  -5 193.732 15.9376   2
  -3  -8  -5 169.672 14.5017   3
  -8   3  -5 200.806 16.1370   1
  -8  -3   5 208.868 15.6367   3
   8  -5   3 208.251 16.9316   3
  -5  -8   3 192.340 15.0890   3
   8   3   5 175.816 12.4721   2
   3  -5  -8 192.825 17.4806   2
  -8  -5  -3 183.707 12.9722   1
  -8  -5  -3 180.501 16.0311   3
   3   5   8 184.224 13.9948   1
   5  -8  -3 199.696 15.8008   3
  -3  -5   8 181.802 15.1081   1
  -3   5  -8 188.936 15.1523   1
  -5   3   8 168.230 17.8354   1
  -5   8  -3 199.060 13.9883   1
   5   8   3 189.936 15.3307   2
  -8  -3   5 187.941 16.4629   1
   5  -3   8 166.788 11.7457   3
  -3   8   5 150.902 14.2424   1
   8  -3  -5 192.318 14.6133   3
  -8   5   3 167.671 16.7869   1
  -3   5  -8 182.836 17.0346   2
   5   5  -8 29.0347 8.28528   2
   5  -5  -8 49.8045 10.1783   2
   5  -5   8 36.2269 6.12154   3
  -8  -5  -5 23.3714 6.70219   3
   5  -8  -5 26.3253 6.41754   3
   5  -8   5 30.5454 6.75320   3
   5   8   5 37.4696 8.22141   2
   8  -5  -5 33.2124 7.26085   3
  -5   8  -5 24.3696 5.47021   1
   8  -5   5 30.3880 7.68332   3
   8   5  -5 26.8333 6.39919   2
   8   5   5 32.7991 6.34573   2
  -5   8  -5 23.1820 5.89786   2
  -5   8   5 32.4124 7.73268   1
  -5   5  -8 36.9708 7.89113   1
   5   5   8 29.4387 5.86568   1
  -8  -5   5 31.4606 7.30238   1
  -8  -5   5 33.6277 7.31429   3
  -8   5  -5 21.0726 6.16372   1
  -8   5   5 31.5740 9.19038   1
  -5  -8  -5 25.6688 6.82402   3
  -5  -8   5 34.7025 7.01841   3
  -5  -5  -8 35.7919 7.22056   2
  -5  -5  -8 29.0207 7.08060   3
  -8  -5  -5 40.3283 6.69364   1
  -5  -5   8 38.5600 8.87790   1
  -5   5  -8 28.2506 7.04338   2
  -5   5   8 28.3218 7.96497   1
   5   8  -5 20.4622 6.30357   2
   0  -8  -6 224.800 17.8346   2
   0  -8  -6 208.480 16.0171   3
  -6   0   8 233.140 20.9110   1
   0  -8   6 256.262 15.4153   1
   8   0  -6 221.727 15.3041   3
  -8   0  -6 200.080 16.6621   1
  -8   0   6 201.037 18.8304   1
  -6  -8   0 207.656 17.4699   3
  -6   8   0 255.906 16.7499   1
  -6   8   0 238.354 16.2633   2
   0  -6  -8 240.007 19.0612   2
   0  -6  -8 241.013 15.5871   3
   0  -6   8 227.178 16.4754   1
   0   8  -6 195.436 17.0454   2
   6   0  -8 225.038 17.1841   2
   6   0   8 226.816 15.4424   3
   0   6  -8 215.307 19.2147   2
   0  -8   6 217.117 15.3264   3
   6  -8   0 237.486 18.0361   3
   6   8   0 235.533 17.1557   2
   8   0  -6 235.269 15.7939   2
   8   0   6 218.462 18.8139   3
   0   6   8 249.185 17.6962   1
  -6   0  -8 234.366 16.1711   2
  -6   0  -8 229.008 17.1936   1
   8   6   0 212.962 15.1880   2
  -8   6   0 234.059 17.9482   1
  -8  -6   0 232.064 18.2652   3
   2  -6   8 399.354 20.9089   3
   2  -6   8 384.316 24.4309   1
  -2   6   8 377.474 27.2017   1
   2  -8  -6 398.074 24.0627   3
   2   6  -8 374.256 26.9869   2
  -8  -6   2 392.545 25.6901   3
  -2  -8   6 397.670 24.4720   1
  -6   8   2 378.509 23.9814   1
   8  -2   6 435.982 26.2125   3
  -6  -8  -2 354.151 25.0569   3
  -8  -6   2 387.222 22.6373   1
   6   8  -2 400.945 24.9208   2
  -8   6  -2 409.362 25.4805   1
  -6   8   2 408.506 22.9238   2
   6  -2  -8 387.679 25.4124   2
   2  -8  -6 423.536 26.1938   2
  -6  -2   8 418.593 29.9072   1
   8  -6  -2 354.407 25.4693   3
  -2  -6  -8 403.682 23.5858   3
   8   6   2 396.676 22.9632   2
  -8  -2  -6 413.299 21.8007   2
  -6   2  -8 396.409 25.6420   1
  -6   2  -8 394.768 23.6219   2
  -2  -8   6 406.342 23.1931   3
  -2   8  -6 420.451 26.3451   2
   8   2  -6 398.709 24.3447   2
   8   2  -6 388.857 23.6552   3
   6   2   8 373.146 25.7338   3
  -8   2   6 447.536 29.5772   1
  -8  -2  -6 396.843 24.8163   1
   6  -8   2 402.657 25.5538   3
   8   2   6 423.139 29.5654   3
  -6  -2  -8 380.493 24.1107   1
   6  -8  -2 407.545 25.9634   3
   6   2  -8 409.574 26.2156   2
  -2   6  -8 412.400 28.6191   2
   2  -8   6 381.476 22.7911   3
  -2  -6   8 391.202 24.4990   1
  -8   2  -6 378.750 25.3526   1
   6  -2   8 386.494 21.7397   3
  -2  -8  -6 384.984 25.0052   2
  -2  -8  -6 364.903 24.1226   3
  -6   8  -2 401.589 23.9499   1
   2   6   8 417.182 24.1840   1
  -8  -6  -2 404.877 26.3612   3
  -6  -8   2 381.082 25.0770   3
   8  -2  -6 408.768 23.2929   3
   2  -8   6 408.197 23.3474   1
  -8   6   2 417.176 27.2685   1
   6   8   2 430.451 25.0658   2
  -6  -2  -8 390.037 24.0436   2
   2   8  -6 392.202 26.0892   2
  -8  -2   6 399.641 27.2187   1
   8   6  -2 375.056 23.0866   2
  -6   2   8 372.485 28.3336   1
  -2   8   6 403.225 25.5661   1
   8  -2  -6 405.622 23.4525   2
   2  -6  -8 416.866 27.6894   2
   4  -8  -6 102.268 12.5028   3
  -6   4  -8 120.368 10.5457   2
  -6  -4   8 101.347 15.3015   1
  -6   8   4 59.3341 10.6351   1
  -8   4   6 66.5359 13.1196   1
  -6  -8  -4 82.5246 12.9144   3
  -4  -6  -8 86.0857 11.6744   3
   4   6  -8 61.7224 12.0881   2
   8  -4   6 66.0351 10.6966   3
   8   4  -6 88.2116 12.5791   2
  -4   8  -6 84.7846 8.95007   1
   8   6   4 93.1843 9.21073   2
  -8  -6   4 90.6690 11.7023   1
  -8  -6   4 87.5906 12.1685   3
  -8   6  -4 98.7193 13.0851   1
   8  -6  -4 94.1267 12.7689   3
  -4   8  -6 82.6416 12.4618   2
  -8  -4  -6 72.0001 10.0341   1
   4   8   6 105.414 14.1890   2
   6  -4  -8 114.428 14.4321   2
  -6   4  -8 84.5787 12.0089   1
  -4   6   8 83.2485 13.4421   1
   6  -8   4 72.7235 10.9726   3
   4  -6   8 79.6193 7.85028   3
   4  -8  -6 98.3601 13.0898   2
  -4  -6  -8 69.8487 11.3448   2
  -8  -4  -6 61.2945 12.0321   3
   6   8  -4 67.3752 10.7906   2
  -6   8   4 88.8204 9.26509   2
  -4  -8   6 101.247 9.63197   3
   8   4   6 101.302 9.46651   2
   4  -8   6 67.9453 9.95041   3
  -4   8   6 61.1556 11.3005   1
   8  -4  -6 106.843 10.1405   3
  -4   6  -8 100.030 14.8177   2
   6   4  -8 77.3808 13.1177   2
   8  -6   4 86.4142 12.1823   3
  -8  -6  -4 67.5488 11.4624   3
  -8   4  -6 100.126 13.6493   1
   4   8  -6 114.899 15.6002   2
  -4  -8  -6 80.0891 11.6416   3
  -6  -8   4 102.670 12.6262   3
  -4  -6   8 113.749 14.5130   1
  -4   6  -8 104.075 10.8832   1
  -8  -4   6 102.149 13.4557   1
   4   6   8 84.7875 8.66046   1
   6  -8  -4 102.738 13.4469   3
  -8   6   4 64.3272 12.4157   1
  -6   4   8 105.201 15.7403   1
  -6  -4  -8 81.3388 11.2094   2
  -6  -4  -8 69.1009 11.7592   3
  -6   8  -4 96.5572 9.74212   1
   6  -4   8 83.1841 8.31600   3
  -8  -4   6 97.5523 12.3477   3
   8   6  -4 95.1749 11.8551   2
   6   8   4 85.9886 11.8626   2
   4  -6  -8 87.3701 13.8040   2
  -6  -4  -8 84.1158 10.9035   1
   6  -8  -6 34.4948 7.66490   3
   6   6  -8 56.2662 11.1753   2
   6  -8  -6 19.8361 5.90600   2
  -6   8   6 36.8031 8.66027   1
   6   8   6 36.8184 8.22790   2
   8  -6  -6 34.0846 7.36745   3
   8  -6   6 47.9547 8.73375   3
   8   6  -6 42.9351 8.95052   2
   8   6   6 24.9361 6.25304   2
  -6  -6  -8 50.9202 8.81506   2
  -6  -6  -8 44.0869 9.06689   3
  -6  -6   8 34.2601 8.15798   1
  -6   6  -8 36.2455 7.97707   1
   6   6   8 32.0116 5.86974   1
   6   8  -6 38.1643 8.65294   2
  -8  -6  -6 43.1969 9.01179   3
  -8  -6   6 34.9570 7.35646   1
  -8  -6   6 38.9470 7.90777   3
  -8   6  -6 22.0571 6.83123   1
  -8   6   6 51.4708 11.2449   1
  -6  -8  -6 38.8798 8.35702   3
  -6   8  -6 31.2107 6.99562   1
  -6   6   8 47.0008 10.2512   1
  -6  -8   6 31.7381 6.56571   3
   6  -8   6 47.8661 8.60520   3
   6  -6  -8 29.5770 7.85210   2
   6  -6   8 51.1666 7.92611   3
   7   8  -1 367.460 23.2710   2
   1   7  -8 340.224 25.9196   2
  -7   1  -8 371.394 21.8486   2
  -8   1   7 383.537 27.3830   1
   8  -1   7 404.665 24.7633   3
   8   1  -7 381.305 23.4057   2
   8   1  -7 328.836 20.6533   3
  -7   8   1 365.765 23.5211   1
  -7  -8  -1 380.768 25.5750   3
  -8  -7   1 394.027 25.8222   3
   1  -7   8 345.574 22.6421   1
  -7   1  -8 357.618 24.4673   1
  -1  -8   7 377.554 21.7314   3
  -1   8  -7 367.594 25.7046   2
  -8   7  -1 351.860 23.9591   1
   1  -8  -7 329.895 22.3777   3
  -1   7   8 365.620 25.8372   1
   7   1   8 386.592 24.5814   3
  -7  -1   8 330.549 26.4424   1
   1  -8  -7 359.147 25.1132   2
   7  -1  -8 351.326 23.2149   2
   8   7   1 362.705 22.4040   2
  -1  -7  -8 422.216 23.5766   3
   7  -8   1 389.609 25.6695   3
  -8  -1  -7 380.868 24.4930   1
   8  -7  -1 369.528 25.7513   3
  -1  -7  -8 387.043 26.0022   2
  -1  -8   7 368.227 22.0650   1
  -7   1   8 394.242 27.8945   1
  -8  -1   7 371.594 26.7854   1
   8  -1  -7 379.161 21.3921   3
  -8   7   1 384.450 25.0408   1
  -8   1  -7 351.326 24.2266   1
   7  -8  -1 342.065 24.7266   3
  -1  -7   8 369.947 23.0060   1
  -7  -8   1 387.207 25.4535   3
   1  -8   7 369.600 22.2888   1
   1  -8   7 377.891 21.6935   3
   1   8  -7 352.412 25.5472   2
  -8  -7  -1 351.541 25.1131   3
   7  -1   8 377.780 22.3588   3
   7   1  -8 379.188 24.3436   2
  -7  -1  -8 350.277 23.8162   1
  -1   7  -8 388.103 27.1121   2
   1  -7  -8 379.209 22.3706   3
   8   1   7 318.068 24.8020   3
   7   8   1 357.774 22.9875   2
   8  -1  -7 330.728 21.8990   2
  -1   8   7 416.431 25.7153   1
   8   7  -1 359.555 22.5220   2
   1   7   8 348.376 22.7760   1
   1  -7  -8 389.379 26.3294   2
  -7  -1  -8 368.259 22.3362   2
   8  -7   1 363.928 25.6771   3
  -7   8  -1 374.913 23.4625   1
  -1  -8  -7 365.263 24.8663   2
  -1  -8  -7 379.044 23.4914   3
   3   7  -8 350.710 26.0107   2
  -8   7  -3 340.881 23.1004   1
   8  -3   7 316.703 21.5152   3
   8   3  -7 331.736 23.2377   2
   8   3  -7 328.416 21.6619   3
  -8   3   7 348.928 26.5906   1
   7   8  -3 358.070 23.1234   2
   3  -8  -7 350.782 24.6537   2
   7  -8   3 319.104 23.0888   3
   7   3   8 309.206 24.9658   3
  -3   7   8 359.940 25.2678   1
  -8  -7   3 366.831 23.9909   3
   3  -7   8 340.475 22.5205   1
   3  -7   8 335.613 19.8341   3
  -3   8  -7 354.932 21.7573   1
  -3   8  -7 348.002 25.0953   2
  -8  -3  -7 338.910 20.4442   2
  -7  -8  -3 349.527 24.3014   3
   3  -8  -7 361.468 22.2046   3
  -7  -3   8 327.841 25.2384   1
  -7   3  -8 324.996 23.4699   1
   8   7   3 338.760 21.3241   2
  -7   8   3 371.589 24.4272   1
  -8  -3  -7 317.735 21.9068   1
  -3  -7  -8 324.109 23.3041   2
  -3  -7  -8 364.574 22.9371   3
  -3  -8   7 348.837 20.7558   3
   8  -7  -3 324.124 23.9688   3
   7  -3  -8 349.583 23.1243   2
   8  -3  -7 364.738 22.3722   2
  -7  -3  -8 297.658 20.5617   2
   7  -8  -3 331.251 23.8934   3
   8   3   7 345.540 26.9336   3
   7   8   3 332.230 22.0682   2
  -3  -7   8 346.583 22.8351   1
   7  -3   8 307.321 20.1127   3
   7   3  -8 282.833 22.6285   2
  -3   7  -8 379.657 26.7788   2
   8  -3  -7 369.719 21.3467   3
   8  -7   3 335.597 23.8862   3
   8   7  -3 345.201 22.1734   2
   3  -7  -8 326.376 24.7348   2
  -8  -3   7 328.752 24.4130   1
  -8   3  -7 334.007 23.8850   1
  -3   8   7 372.258 24.6500   1
  -8  -7  -3 306.915 23.3583   3
  -7  -8   3 352.444 23.4783   3
   3  -8   7 320.473 20.5660   3
   3   8  -7 336.346 25.0145   2
  -7  -3  -8 306.623 21.4707   1
  -3  -8  -7 305.714 22.7297   2
  -3  -8  -7 328.897 22.4552   3
   3   7   8 316.516 20.4606   1
  -7   3   8 324.564 25.3631   1
  -7   8  -3 317.721 21.9466   1
  -8   7   3 365.498 25.6670   1
   7   8  -5 15.1293 5.44762   2
   5  -8  -7 9.89001 4.97781   2
   5  -8  -7 8.35878 3.83812   3
   8  -5   7 17.2242 5.04192   3
   8   5  -7 19.9162 6.24179   2
   5   8   7 12.2180 4.99704   2
  -5   8  -7 16.2247 4.96611   1
   7  -8   5 9.58502 4.09164   3
   5   7  -8 4.72804 4.15570   2
  -5   7   8 19.2246 6.11131   1
  -5  -7  -8 14.7261 4.90179   2
   5  -7   8 20.7808 4.73599   3
  -8  -5  -7 18.3754 6.31725   3
  -8  -7   5 27.0987 6.55200   3
  -7   8   5 11.7459 4.81316   1
  -7   5  -8 12.4861 4.64064   1
  -5  -7  -8 21.0643 6.11286   3
   8  -7  -5 6.07383 3.42274   3
  -5  -8   7 18.8115 4.57880   3
  -7  -5   8 13.5541 4.66449   1
  -8  -5  -7 10.3318 3.41116   1
   7  -5  -8 9.92229 4.21337   2
   8   7   5 9.96087 4.16168   2
  -8   7  -5 14.0803 5.14935   1
   7   5   8 4.79983 3.11014   1
  -8   5   7 16.3455 6.53246   1
  -7  -8  -5 7.36144 3.99167   3
  -5   8  -7 19.6062 5.87829   2
  -8  -7  -5 16.9075 5.89743   3
  -8  -5   7 17.2610 5.22534   3
  -8   7   5 13.7392 5.84204   1
  -7  -5  -8 15.6515 4.45622   1
  -8  -5   7 12.6300 4.54526   1
  -7  -5  -8 18.4320 6.13209   3
  -5   7  -8 11.0791 4.55319   2
   5  -7  -8 8.21443 4.38968   2
  -7   5   8 16.4135 6.50750   1
  -5  -8  -7 12.5277 4.80655   3
  -5   7  -8 17.4522 5.60088   1
   7  -8  -5 8.44062 4.04887   3
  -7  -5  -8 19.7974 5.12077   2
  -5   8   7 22.8424 6.83142   1
   7   8   5 10.1247 4.58701   2
   8  -5  -7 16.3142 4.42032   3
   5  -8   7 17.2996 4.88322   3
   5   8  -7 21.7777 7.53431   2
   8   5   7 12.9981 4.63464   2
  -7  -8   5 12.6055 4.49092   3
   7  -5   8 16.7276 4.52093   3
   7   5  -8 20.2311 6.42734   2
  -8   5  -7 7.84758 4.40414   1
  -5  -7   8 11.2035 4.56527   1
   8  -7   5 19.7524 5.94984   3
   8   7  -5 14.5444 5.37870   2
  -7   8  -5 11.5354 4.70610   1
  -8  -7  -7 558.691 35.4841   3
  -8  -7   7 577.043 32.3399   3
  -8   7  -7 554.933 34.3107   1
  -8   7   7 623.225 38.4200   1
  -7  -8  -7 542.680 34.5782   3
  -7  -8   7 513.934 30.9369   3
  -7  -7  -8 588.733 36.2071   3
  -7   7  -8 557.001 34.1302   1
  -7   7   8 595.142 37.6595   1
  -7   8  -7 514.922 32.9661   1
  -7   8   7 593.174 37.3435   1
   7  -8  -7 540.675 33.2419   3
   7  -8   7 545.883 32.0994   3
   7  -7  -8 492.727 33.1233   2
   7  -7   8 543.268 31.0285   3
   7   7  -8 495.114 35.0401   2
   7   7   8 539.960 33.6125   2
   7   8  -7 534.684 35.2004   2
   7   8   7 546.777 33.6860   2
   8  -7  -7 553.000 33.1127   3
   8  -7   7 547.662 31.9946   3
   8   7  -7 543.194 35.3775   2
   8   7   7 560.288 32.9199   2
  -8  -8   0 755.444 42.2171   3
  -8   0  -8 728.200 41.2505   1
  -8   0   8 734.878 43.9852   1
  -8   8   0 704.356 40.0609   1
   0  -8  -8 746.552 42.4138   2
   0  -8  -8 756.580 39.1594   3
   0  -8   8 744.661 39.1493   1
   0   8  -8 715.571 43.3357   2
   8  -8   0 734.777 42.1713   3
   8   0  -8 727.732 39.1411   2
   8   0   8 763.290 40.4001   3
   8   8   0 747.989 39.1243   2
  -8  -8  -2 144.563 18.2281   3
  -8  -8   2 155.381 15.0834   3
  -8  -2  -8 142.979 13.7201   1
  -8  -2  -8 142.169 11.7348   2
  -8  -2   8 179.601 16.8410   1
  -8   2  -8 157.553 14.9978   1
  -8   2   8 131.507 18.0665   1
  -8   8  -2 152.205 13.8631   1
  -8   8   2 136.243 13.8093   1
  -2  -8  -8 112.704 15.1151   2
  -2  -8  -8 144.679 13.2365   3
  -2  -8   8 167.880 13.4393   1
  -2   8  -8 154.685 15.9459   2
  -2   8   8 162.208 15.0437   1
   2  -8  -8 186.065 16.9869   2
   2  -8  -8 151.429 12.9031   3
   2  -8   8 123.761 11.7590   1
   2  -8   8 143.777 11.5296   3
   2   8  -8 122.278 17.2052   2
   8  -8  -2 149.866 15.3616   3
   8  -8   2 129.742 16.2631   3
   8  -2  -8 166.000 13.6286   2
   8  -2   8 159.126 13.0491   3
   8   2  -8 138.605 13.6250   2
   8   2   8 129.387 17.1296   3
   8   8  -2 153.276 13.5843   2
   8   8   2 155.138 13.3166   2
  -8  -8  -4 156.195 15.6177   3
  -8  -8   4 104.808 14.6293   3
  -8  -4  -8 154.858 13.3206   1
  -8  -4  -8 169.155 13.1535   2
  -8  -4  -8 157.948 20.0762   3
  -8   4  -8 96.3930 14.4343   1
  -8   4   8 146.765 19.6135   1
  -8   8  -4 104.304 14.1407   1
  -8   8   4 164.176 16.2834   1
  -4  -8  -8 162.595 15.1800   2
  -4  -8  -8 173.302 15.0600   3
  -4   8  -8 82.0637 14.7729   2
  -4   8   8 167.350 15.5421   1
   4  -8  -8 90.3970 14.5696   2
   4  -8   8 146.360 12.0721   3
   4   8  -8 146.884 19.2771   2
   8  -8   4 168.666 15.4063   3
   8  -4  -8 89.8249 13.2318   2
   8  -4   8 179.127 13.6761   3
   8   4  -8 148.444 15.2966   2
   8   8  -4 168.669 14.7292   2
  -8  -8  -6 51.1283 10.7195   3
  -8  -8   6 61.4644 10.4055   3
  -8  -6  -8 37.3427 9.28896   3
  -8  -6   8 58.3437 10.4486   1
  -8   6  -8 51.4784 10.3188   1
  -8   6   8 55.6034 11.6122   1
  -8   8  -6 52.2010 9.89544   1
  -8   8   6 47.0635 10.8952   1
  -6  -8  -8 74.1903 12.4406   3
  -6   8  -8 40.4827 8.35168   1
  -6   8   8 60.4358 11.4843   1
   6  -8  -8 45.9037 10.2090   2
   6  -8   8 46.2207 7.87875   3
   6   8  -8 47.9442 11.0306   2
   6   8   8 71.0679 12.0029   2
   8  -8  -6 72.6454 12.1943   3
   8  -8   6 65.8712 10.9273   3
   8  -6   8 43.3580 8.13122   3
   8   6  -8 51.8093 10.9370   2
   8   6   8 55.5230 9.67369   2
   8   8  -6 65.1097 11.6644   2
   8   8   6 55.8599 9.63796   2
  -8  -8  -8 212.505 20.1528   3
  -8   8  -8 203.105 18.5368   1
  -8   8   8 219.937 20.7734   1
   8  -8   8 205.332 17.1229   3
   8   8  -8 225.596 20.9930   2
   8   8   8 217.279 18.6583   2
  -9   0  -1 24.1300 6.12586   1
  -9   0   1 27.0160 6.59888   1
  -1  -9   0 26.9090 6.26954   3
  -1   9   0 26.5922 5.94160   2
   0  -1  -9 30.9002 7.79917   2
   0  -1   9 28.1579 6.36636   1
   0   1  -9 37.4293 8.66077   2
   0   1   9 34.1502 7.13782   1
   1  -9   0 41.0184 7.42447   3
   1   9   0 24.1553 5.80314   2
   9   0  -1 36.1890 7.57065   3
   9   0   1 25.0276 6.90493   3
   0   9   1 26.7694 6.33744   2
   1   0  -9 29.5634 7.37033   2
   1   0   9 36.5155 7.40531   1
   9  -1   0 31.4326 7.05787   3
   9   1   0 22.9155 6.80888   3
  -9   1   0 26.8191 6.49918   1
  -1   0  -9 32.3245 7.75457   2
  -1   0   9 26.3677 6.58932   1
   0  -9  -1 29.5568 6.32788   3
   0  -9   1 36.4936 7.55280   3
   0   9  -1 36.5951 7.16793   2
  -9  -1   0 25.8424 6.12197   1
   9  -1   2 77.6746 12.2478   3
   2  -1  -9 56.8267 10.8002   2
   1   2  -9 86.6066 14.0522   2
   1  -2   9 66.0208 10.0941   1
  -9  -2   1 55.7610 9.01370   1
  -9   2  -1 58.1352 9.71733   1
   2   9  -1 78.6080 10.4721   2
  -9   1   2 54.0619 10.2681   1
  -2  -1   9 54.5643 9.80666   1
  -2   1  -9 58.3739 10.6088   2
  -1   2   9 73.5358 11.1983   1
  -2   9   1 77.1225 10.0500   2
  -1  -9   2 66.6504 9.73011   3
  -1   9  -2 56.9698 8.78867   2
   2   1   9 49.6629 8.75783   1
   1  -9  -2 75.5195 11.1125   3
   2  -9   1 59.4734 9.35224   3
  -2  -9  -1 68.2721 9.89574   3
   1   9   2 50.2396 8.62574   2
  -9  -1  -2 70.6141 10.1772   1
   9   2   1 62.5970 11.7015   3
  -1  -2  -9 66.9335 11.7603   2
   9   1  -2 77.7530 11.6014   3
   9  -2  -1 58.0869 10.1358   3
  -1   9   2 71.1964 9.93603   2
   9   2  -1 58.3238 10.3941   3
   2  -1   9 74.4479 10.9488   1
   9  -2   1 61.1214 10.5569   3
   9   1   2 85.2637 13.4413   3
   1   2   9 54.3450 9.46634   1
   2  -9  -1 43.2644 7.91253   3
   1  -9   2 58.1023 9.05769   3
  -9   2   1 63.3986 10.6580   1
   2   9   1 60.9728 9.69182   2
  -1  -2   9 52.0221 8.85689   1
  -1   2  -9 56.6228 10.9449   2
  -2   1   9 75.3317 11.4668   1
   1  -2  -9 58.7435 10.8967   2
  -9  -2  -1 57.7306 8.83626   1
   9  -1  -2 64.2956 9.96836   3
  -9  -1   2 55.8801 10.0476   1
  -9   1  -2 48.8102 8.88798   1
  -2  -1  -9 70.0095 11.8114   2
   1   9  -2 72.9031 10.2541   2
  -2  -9   1 66.1920 9.98972   3
  -2   9  -1 66.0026 9.09828   2
  -1  -9  -2 59.1384 9.68674   3
   2   1  -9 70.6433 11.7862   2
  -9   0  -3 198.733 16.2650   1
  -9   0   3 201.007 18.4713   1
  -3  -9   0 212.208 16.7734   3
  -3   9   0 228.174 13.2246   1
  -3   9   0 217.401 15.5532   2
   0  -3  -9 215.845 18.7973   2
   0  -3   9 224.814 17.0632   1
   0   3  -9 216.090 18.9944   2
   0   3   9 242.756 17.8725   1
   3  -9   0 202.672 16.3851   3
   3   9   0 219.422 16.7636   2
   9   0  -3 219.537 16.7286   3
   9   0   3 240.492 19.5325   3
   3   0   9 220.343 17.1141   1
   9  -3   0 222.624 18.2220   3
   9   3   0 228.607 12.9734   2
   3   0  -9 234.531 18.4952   2
   0   9  -3 211.357 16.1946   2
  -9  -3   0 228.221 16.2019   1
  -9  -3   0 221.875 18.3996   3
  -9   3   0 224.913 17.8667   1
  -3   0  -9 222.128 18.0001   2
  -3   0   9 213.916 18.2794   1
   0  -9  -3 205.639 16.3045   3
   0  -9   3 220.089 16.2753   3
   0   9   3 216.674 16.4972   2
   9   2  -3 31.8243 7.76961   3
   9   2  -3 25.0717 4.97695   2
   2   3  -9 34.1372 8.62630   2
  -9  -3   2 17.0939 5.81203   3
   9  -2   3 21.1506 6.60569   3
   3   2   9 15.7987 4.81197   1
   9  -3  -2 15.8369 5.16198   3
  -9   3  -2 20.4271 6.28511   1
  -9  -2  -3 31.6818 6.53865   1
  -9   2   3 23.3612 7.28550   1
  -3  -2   9 15.2534 5.44243   1
  -3   2  -9 22.7092 6.37714   2
  -3  -9  -2 27.0368 6.75970   3
  -9  -3   2 17.6719 5.25332   1
  -2  -9   3 17.1000 4.99372   3
  -2   9  -3 24.0168 4.09463   1
  -2   9  -3 16.9117 4.93274   2
   3  -9   2 19.8495 5.62914   3
   2  -9  -3 19.1389 5.28324   3
   2  -3   9 14.0414 4.66235   1
  -2   3   9 30.3878 7.87014   1
   2   9   3 19.2043 5.35924   2
   3  -2  -9 22.6588 7.16040   2
   3   9  -2 22.6264 6.24565   2
  -3   9   2 36.3425 6.72693   2
  -2  -3  -9 28.3362 6.98830   2
   2   3   9 20.7134 5.98602   1
   9  -3   2 20.5158 6.78569   3
   2   9  -3 26.9338 6.33840   2
  -3  -2  -9 23.7262 6.36395   2
   2  -9   3 30.7763 6.80353   3
   9  -2  -3 29.2660 6.74025   3
  -3  -9   2 18.7152 5.43600   3
   9   2   3 17.6520 7.44570   3
  -3   9  -2 22.3554 5.45139   2
   3   2  -9 20.3132 6.44342   2
  -9  -3  -2 31.7148 6.23844   1
  -2  -3   9 13.2008 4.68245   1
   3  -2   9 43.6543 8.45645   1
  -2  -9  -3 30.3212 6.87768   3
  -9   3   2 29.5793 7.87845   1
  -9  -2   3 10.2974 4.44095   1
  -9   2  -3 23.0393 6.08009   1
  -2   9   3 30.4509 6.65685   2
  -9  -3  -2 29.4223 7.45925   3
   3   9   2 17.4545 5.58288   2
  -3   2   9 31.2559 8.74747   1
  -2   3  -9 25.6427 7.43617   2
   9   3  -2 25.4735 4.71973   2
   2  -3  -9 10.3244 5.18368   2
  -3   9  -2 26.8467 4.43858   1
   3  -9  -2 17.8477 5.63840   3
  -9  -4   1 41.1828 7.23406   1
  -1   9  -4 40.0030 7.49536   2
  -9   4  -1 43.8832 8.74911   1
   4  -9   1 47.2810 9.18519   3
   1  -4   9 30.2787 7.03212   1
  -4  -1   9 33.6665 8.57726   1
  -4   1  -9 52.0186 9.44572   2
  -4   9   1 47.6131 6.64125   1
  -4   9   1 50.4513 8.04990   2
  -1  -9   4 41.5320 7.71949   3
   1  -9  -4 46.2379 8.42234   3
   4  -1  -9 49.1910 9.76449   2
   4   1   9 35.1609 7.53178   1
  -1   4   9 48.5085 9.11377   1
  -9  -1  -4 46.8926 8.31879   1
   9  -4  -1 34.8406 8.02084   3
  -9  -4   1 42.8832 9.33581   3
  -9   1   4 34.3246 8.95304   1
  -4  -9  -1 47.0560 8.74551   3
   9   4   1 43.7467 5.96591   2
   1   4  -9 49.6080 10.4886   2
  -1  -4  -9 30.1104 7.52205   2
   9  -1   4 45.7395 9.72414   3
   9   1  -4 49.8384 8.56243   3
   4   9  -1 38.6747 7.79975   2
   1   9   4 40.8872 8.18986   2
  -9   4   1 47.6084 9.37847   1
   4   1  -9 51.9679 9.80002   2
  -9  -1   4 41.5351 9.62016   1
   1  -4  -9 45.5390 9.81588   2
  -4  -1  -9 49.5508 8.86121   2
  -9   1  -4 48.1683 8.82748   1
  -1   9   4 49.5525 8.63397   2
  -4   1   9 37.6475 9.41605   1
  -1  -9  -4 45.7189 8.20342   3
   1   9  -4 58.1556 9.89019   2
  -1   4  -9 43.1770 9.59293   2
  -1  -4   9 37.1888 7.44366   1
   9  -4   1 53.4480 10.6215   3
   9   4  -1 50.4682 6.52967   2
  -4  -9   1 41.1657 8.26807   3
   1   4   9 45.0576 8.46772   1
  -9  -4  -1 51.6602 7.89039   1
   9   1   4 48.0344 10.8848   3
   9  -1  -4 43.7387 7.75884   3
  -9  -4  -1 46.4424 9.40434   3
  -4   9  -1 59.9330 8.39907   2
  -4   9  -1 45.4486 6.41600   1
   1  -9   4 41.0222 7.88960   3
   4   9   1 45.1571 8.42867   2
   4  -9  -1 42.2234 8.18364   3
   4  -9   3 260.046 19.4829   3
  -3   9  -4 303.710 17.8437   1
  -4  -9  -3 277.557 20.6480   3
  -3  -9   4 307.239 20.0256   3
  -9  -4   3 282.440 21.2269   3
   4   9  -3 280.616 20.5049   2
  -9  -3  -4 281.640 19.3678   1
  -9  -4   3 292.724 20.7639   1
  -9   3   4 284.173 23.9982   1
   9   3  -4 305.356 19.0251   2
   3  -9  -4 286.105 20.2069   3
   9  -3   4 301.116 22.7410   3
   9   4   3 284.983 16.9231   2
  -4   9   3 298.076 18.1767   1
  -4   9   3 296.876 19.7854   2
  -3  -4  -9 314.741 22.2421   2
   3   9   4 280.133 20.6959   2
   4   3   9 302.806 20.4566   1
  -3   4   9 312.428 24.5092   1
  -3   9  -4 289.559 19.9822   2
   3  -4   9 294.370 21.3464   1
   3   4  -9 283.503 22.8762   2
  -9  -3  -4 286.575 22.8022   3
   4  -3  -9 310.072 23.3818   2
  -4  -3   9 310.940 23.0047   1
  -4   3  -9 297.370 20.9152   1
  -4   3  -9 295.347 21.5724   2
   9  -4  -3 302.466 21.1147   3
   9   3  -4 295.456 22.1528   3
  -9   4  -3 305.225 21.5892   1
  -9   4   3 291.263 23.8036   1
  -4  -3  -9 249.247 19.9505   2
  -3  -4   9 271.656 20.7173   1
  -9  -4  -3 299.297 19.1141   1
   3  -4  -9 259.107 22.1670   2
   4   9   3 283.502 20.6602   2
   9  -3  -4 284.222 19.9298   3
   3  -9   4 285.113 19.9313   3
  -4  -9   3 290.270 20.1049   3
  -9   3  -4 268.431 20.5636   1
  -9  -4  -3 274.825 21.7985   3
  -4   9  -3 318.238 19.7315   2
   3   4   9 252.866 19.0596   1
  -3  -9  -4 260.796 19.9183   3
  -4   3   9 309.379 25.4919   1
   9  -4   3 287.069 22.2254   3
   9   4  -3 302.836 18.5781   2
  -3   9   4 277.927 19.9669   2
  -4   9  -3 294.979 17.7714   1
   3   9  -4 319.176 21.6261   2
  -9  -3   4 281.869 21.7482   1
   4   3  -9 271.102 21.6883   2
   4  -9  -3 304.851 20.9669   3
  -3   4  -9 288.876 22.5357   2
  -5   0  -9 217.983 16.7975   2
  -5   0  -9 208.243 16.6304   1
   0  -9  -5 211.566 16.4652   3
   0  -9   5 226.040 16.0675   3
   0   9  -5 210.253 16.8953   2
   0   9   5 201.344 16.8484   2
   5   0  -9 210.285 17.3537   2
  -9  -5   0 200.208 14.7016   1
  -9  -5   0 188.506 17.1048   3
  -5   0   9 225.994 21.1113   1
   9   0  -5 217.662 15.7739   3
  -9   0   5 224.938 19.4634   1
  -5  -9   0 226.123 17.8075   3
   0  -5   9 193.402 15.9960   1
   9   5   0 214.115 14.1465   2
   0   5  -9 231.838 20.2527   2
   5  -9   0 195.447 16.5863   3
   5   9   0 203.889 16.4639   2
   0  -5  -9 241.261 20.0266   2
   0   5   9 212.500 16.9982   1
   9   0   5 196.064 18.7797   3
  -5   9   0 210.684 14.5803   1
  -5   9   0 209.887 14.8563   2
  -9   0  -5 202.533 16.6172   1
  -9   5   0 215.627 17.7197   1
   9  -5   0 190.214 17.7480   3
   2  -9  -5 24.5328 5.93574   3
   9  -2   5 12.7413 5.46157   3
   5  -9   2 16.5178 5.17727   3
  -5   2  -9 19.2842 5.24560   2
  -5  -9  -2 24.7733 6.77312   3
   9   2  -5 19.8439 5.10409   2
  -2   9  -5 15.5414 5.24443   2
  -9  -2  -5 17.6467 4.87446   1
   2   9   5 14.9118 5.09728   2
   5  -2  -9 18.1537 6.33851   2
  -5  -2   9 11.5868 5.78563   1
   5   9  -2 20.5524 6.23884   2
  -9  -5   2 20.1169 5.11186   1
  -9  -5   2 23.8846 6.67982   3
   9   2  -5 23.4894 5.97087   3
  -5   2  -9 15.2465 5.25730   1
   9   5   2 15.8980 4.04155   2
  -9   2   5 16.3088 6.09393   1
  -5   9   2 14.6914 4.34162   1
  -2  -9   5 25.4239 5.95140   3
   5   2   9 23.2930 6.21726   1
   9  -5  -2 16.5541 5.49121   3
  -2   5   9 28.9447 8.07029   1
   2  -5   9 27.1438 6.40285   1
  -2  -5  -9 20.0531 6.39838   2
  -9   5  -2 21.4030 6.09671   1
  -5   9   2 33.0304 6.54526   2
   2   5  -9 15.1888 6.24302   2
   5   9   2 21.5873 6.12434   2
   9   2   5 23.3254 7.61541   3
   9  -5   2 17.8137 6.93209   3
  -5   9  -2 18.0751 4.53709   1
  -5   9  -2 19.8305 4.79384   2
  -2   5  -9 17.4624 6.43893   2
  -9   5   2 27.2971 7.79088   1
  -5  -2  -9 22.3079 5.82513   2
  -9  -5  -2 23.9194 4.86172   1
  -9  -5  -2 19.7321 6.17223   3
   9  -2  -5 24.0525 5.50617   3
  -2   9   5 22.3451 6.10860   2
   2   5   9 19.9309 5.31211   1
  -2  -9  -5 18.5883 5.71407   3
   2   9  -5 19.7508 6.02641   2
  -9  -2   5 15.2989 5.67532   1
  -9   2  -5 20.3527 5.99717   1
   5   2  -9 26.0892 7.28016   2
   2  -5  -9 24.5545 7.72228   2
   9   5  -2 23.2005 4.99684   2
   2  -9   5 17.9280 5.10968   3
  -5   2   9 37.1052 10.7561   1
  -5  -9   2 18.8003 5.59401   3
  -2  -5   9 14.8500 4.71507   1
   5  -9  -2 16.4376 5.67771   3
  -5  -9  -4 44.4867 9.06087   3
  -5   4  -9 40.4269 8.51158   1
   5   4   9 37.7654 7.16453   1
  -5  -4   9 47.8301 10.4438   1
  -9  -5   4 34.1650 8.06904   3
  -9   5  -4 56.2950 10.2495   1
  -9   4   5 45.5706 10.5754   1
  -9  -4  -5 51.7760 11.0853   3
  -4   5   9 51.6326 11.7373   1
  -9  -5   4 43.1881 8.35310   1
   4   5  -9 41.0548 9.79446   2
   5  -4  -9 43.6614 9.22955   2
   5  -9   4 39.1630 8.10993   3
   5   9  -4 36.8900 8.04991   2
   9  -4   5 54.1340 10.0766   3
  -5   9   4 47.3827 8.10906   1
   4  -9  -5 37.0850 7.81223   3
  -4  -9   5 41.3514 7.61548   3
  -9  -4  -5 45.3459 7.56023   1
   4   9   5 38.3665 8.60288   2
   9  -5  -4 44.9931 8.86472   3
  -4   9  -5 54.0533 9.52252   2
  -5   4  -9 44.4290 8.66695   2
  -5   9   4 39.8801 7.75293   2
  -4  -5  -9 33.3465 7.83823   2
   9   4  -5 40.8593 7.84976   2
  -4   9  -5 35.8871 6.55973   1
   9   5   4 36.2836 6.36118   2
  -9  -5  -4 39.9217 9.07263   3
  -4  -9  -5 57.3604 9.92084   3
  -4   9   5 47.8494 8.63939   1
  -4   5  -9 48.2372 9.83373   2
  -5   9  -4 40.1140 7.22106   1
   4  -5  -9 38.8135 9.64978   2
  -9  -4   5 52.1957 9.37566   1
  -4  -5   9 37.0247 8.60149   1
  -9  -4   5 41.1297 8.31284   3
  -5  -9   4 47.6400 8.61728   3
   5   4  -9 63.4820 11.8665   2
  -9   4  -5 43.0832 9.10243   1
  -5   9  -4 40.9495 7.79291   2
  -4   9   5 47.7456 8.97294   2
  -9  -5  -4 51.9391 7.80873   1
   4  -9   5 57.0447 9.20593   3
   4   9  -5 30.7733 7.63762   2
  -4   5  -9 44.6253 8.77382   1
   5  -9  -4 39.0590 8.28280   3
   5   9   4 49.8501 9.51733   2
   9  -4  -5 52.9352 9.00344   3
   9  -5   4 49.1187 10.0701   3
   4   5   9 42.2809 7.86546   1
   9   4   5 33.5970 6.00264   2
  -5  -4  -9 55.7067 9.57244   2
   9   5  -4 47.3480 8.19258   2
  -5   4   9 46.8871 11.1837   1
  -9   5   4 35.9997 9.76462   1
   9  -6  -1 151.534 15.1608   3
   9   1  -6 121.392 11.4552   3
   6   9  -1 133.387 13.0074   2
   1  -6   9 132.051 12.7072   1
  -6   1  -9 162.444 14.2545   1
   1   9   6 140.050 13.8731   2
  -6  -1   9 163.271 21.0589   1
   6  -9   1 141.357 14.0965   3
   9   6   1 146.204 11.6268   2
   1  -9  -6 180.729 14.4365   3
  -1   6   9 129.195 13.9870   1
   1  -9  -6 142.364 13.9551   2
  -6   1  -9 139.441 12.5961   2
  -9  -6   1 182.925 16.4497   3
  -9   6  -1 135.829 13.6827   1
   9   1  -6 131.108 11.5168   2
  -6  -9  -1 128.590 16.1996   3
  -1  -9   6 164.686 12.9516   3
  -1   9  -6 170.274 15.2612   2
  -6   9   1 129.149 11.8309   1
  -1  -6  -9 125.106 16.8204   2
   6  -1  -9 140.344 13.6248   2
   9  -1   6 140.823 17.6841   3
  -9  -1  -6 135.069 13.1723   1
   1   6  -9 114.756 16.8535   2
  -9   1   6 143.679 18.7351   1
   6  -9  -1 160.119 14.7464   3
  -9   6   1 153.362 14.9403   1
  -6  -1  -9 130.416 12.2340   2
  -6   9  -1 167.753 12.9384   1
  -6  -1  -9 124.946 12.6342   1
   6   1  -9 131.274 13.6131   2
  -9   1  -6 136.861 13.6702   1
   1   6   9 168.951 14.0956   1
  -1  -9  -6 140.315 13.1776   3
   1   9  -6 117.813 15.2500   2
   9   1   6 161.171 20.8677   3
   9  -6   1 160.175 15.8275   3
   9   6  -1 146.049 11.8243   2
  -9  -1   6 148.724 15.6907   1
   6   9   1 156.431 13.7344   2
  -1  -6   9 161.678 13.6152   1
  -6   1   9 139.121 20.4690   1
   9  -1  -6 164.549 12.5907   3
  -6  -9   1 170.233 15.1592   3
   1  -9   6 134.958 11.9251   3
  -1   6  -9 179.035 17.7269   2
  -9  -6  -1 130.004 16.5681   3
   1  -6  -9 166.477 16.3503   2
   9   6   3 77.9099 9.68637   2
  -3   9  -6 72.9384 11.6183   2
  -3  -6  -9 52.6186 10.2997   2
  -6  -3   9 78.7524 14.4366   1
  -6   9   3 75.7635 10.1641   2
   9   3  -6 65.5920 10.5482   2
   9   3  -6 60.5317 10.1503   3
   3   6  -9 79.0093 14.2739   2
   6   3   9 63.6168 10.0856   1
   9  -3   6 69.8934 11.4986   3
  -6   3  -9 79.0808 10.7856   2
   6   9  -3 67.2087 10.7015   2
  -9  -6   3 80.3489 12.0473   1
  -9  -6   3 70.0815 11.4228   3
  -9   6  -3 71.3787 11.5151   1
   3  -9  -6 96.8683 12.3843   3
   3  -9  -6 83.5085 12.3225   2
   3  -6   9 79.9787 11.8057   1
  -6   9   3 75.1132 10.6941   1
  -9  -3  -6 70.0160 10.2620   1
  -9   3   6 65.9454 12.5185   1
   6  -9   3 76.8551 11.7192   3
  -6   3  -9 74.8624 11.2866   1
  -3   6   9 54.4139 11.4740   1
  -3  -9   6 83.3808 10.5388   3
   9  -6  -3 55.9292 10.1976   3
   3   9   6 78.5457 12.4340   2
   6  -3  -9 71.1491 11.5083   2
  -6  -9  -3 68.7790 11.4766   3
  -3   9  -6 79.6770 8.37519   1
  -9  -6  -3 64.2740 11.3989   3
   6  -9  -3 85.9159 12.7828   3
  -6   3   9 82.9140 14.6510   1
  -6  -9   3 73.0478 11.5267   3
   9  -6   3 58.7186 11.3861   3
   9   6  -3 78.7767 10.3560   2
   3  -9   6 68.7816 10.0685   3
   3   9  -6 75.2959 12.4022   2
  -3  -9  -6 76.5158 11.5987   3
   9   3   6 58.0418 12.3949   3
  -9  -3   6 80.5780 12.9352   1
   6   3  -9 53.9545 10.8784   2
   3  -6  -9 68.8973 13.0818   2
   6   9   3 76.2914 11.3538   2
  -9   6   3 47.9944 10.7662   1
   3   6   9 85.1692 11.2006   1
  -6  -3  -9 61.5736 9.72640   2
  -9   3  -6 80.1836 12.7059   1
  -3  -6   9 82.1811 11.7645   1
  -3   6  -9 79.1406 13.9073   2
   9  -3  -6 77.8499 10.6632   3
  -6   9  -3 79.3411 10.3427   1
  -9  -6   5 167.266 14.8335   1
   9   5  -6 183.085 16.1004   2
  -5   9  -6 161.813 13.8827   1
  -6   5  -9 163.073 15.4555   1
  -6   5  -9 157.840 14.2687   2
  -9   6  -5 185.962 16.4495   1
   6  -9   5 171.257 15.0732   3
   6   5   9 160.293 13.7850   1
   9  -6  -5 184.687 15.9372   3
  -5  -9   6 156.383 13.9732   3
  -9   5   6 167.513 21.7971   1
  -6  -9  -5 164.697 15.9127   3
   9   6   5 177.800 13.7876   2
   6  -5  -9 167.257 16.3698   2
  -9  -5  -6 172.119 13.7497   1
  -9  -5  -6 181.476 17.8015   3
  -5   6   9 173.653 16.9092   1
  -6  -5   9 169.146 17.6290   1
  -9  -6   5 170.229 15.5256   3
  -5  -6  -9 148.721 14.6332   2
   6   9  -5 183.818 16.6222   2
  -5   9  -6 158.418 15.3774   2
   5   9   6 165.247 15.9121   2
  -6   9   5 183.376 16.4654   1
  -6   9   5 180.495 15.3567   2
   9  -5   6 195.218 16.2284   3
   5   6  -9 195.075 23.2305   2
   5  -9  -6 163.901 15.4626   3
   5  -6  -9 130.904 18.0993   2
  -5   6  -9 148.003 15.3213   2
  -5   9   6 123.906 16.8933   1
  -6   5   9 158.185 16.6673   1
  -5  -9  -6 183.662 16.3124   3
  -9  -5   6 158.912 14.9904   1
   5   9  -6 188.989 17.3077   2
   9  -6   5 140.852 14.6028   3
  -5   6  -9 153.152 14.7212   1
   5   6   9 160.730 13.5005   1
   6  -9  -5 149.633 15.0246   3
   6   5  -9 170.911 17.7252   2
  -9   6   5 162.416 21.3856   1
   6   9   5 159.957 15.3802   2
  -9  -5   6 139.675 14.5843   3
  -9   5  -6 165.917 15.8907   1
   5  -9   6 178.255 14.9225   3
   9   5   6 152.859 12.8196   2
   9  -5  -6 158.403 14.3009   3
  -6  -9   5 168.663 14.7887   3
  -6   9  -5 161.512 13.9242   1
  -5   9   6 194.311 16.7687   2
   9   6  -5 182.823 15.3696   2
  -9  -6  -5 150.629 18.8706   3
  -5  -6   9 188.090 17.6920   1
  -6  -5  -9 173.328 15.3140   2
   0   7  -9 210.440 20.1741   2
   0   7   9 229.066 18.4017   1
   7  -9   0 212.552 18.5783   3
   9   0   7 211.413 18.6448   3
   0  -7  -9 202.510 19.1233   2
   0  -7   9 241.236 17.5132   1
   9   0  -7 202.986 14.8232   3
   9  -7   0 223.657 19.6460   3
   7   9   0 220.146 17.1108   2
  -9  -7   0 209.526 18.9995   3
  -9   7   0 234.949 18.7694   1
  -7   0  -9 195.661 17.1210   1
  -9   0  -7 200.860 17.4834   1
  -9   0   7 222.732 19.9967   1
  -7  -9   0 221.939 18.8786   3
  -7   9   0 213.342 16.4449   1
   9   0  -7 220.685 15.8061   2
  -7   0  -9 217.551 15.9677   2
   0  -9  -7 227.888 17.2694   3
   0  -9   7 220.355 15.8873   3
   0   9  -7 206.634 18.8203   2
   9   7   0 241.851 16.3940   2
  -7   0   9 221.855 21.0302   1
   0  -9  -7 233.833 19.1666   2
   7   0  -9 200.127 16.9327   2
  -7   9   2 44.1471 8.22723   1
   7   9  -2 50.1803 9.26571   2
  -2  -7  -9 44.5906 9.40066   2
  -2  -9   7 60.6742 8.78543   3
   7  -9   2 44.1749 9.52338   3
  -2   7   9 53.8905 10.7610   1
  -9  -7   2 68.6982 11.9496   3
  -9  -2  -7 43.7836 8.77468   1
   9  -7  -2 64.6378 11.6837   3
  -9   2   7 56.7092 11.7936   1
  -7   2  -9 58.5353 10.0535   1
  -7  -2   9 53.3527 11.5619   1
   9   2  -7 68.8416 9.48962   3
  -9   7  -2 61.9444 10.5289   1
   2   7  -9 68.9286 13.3410   2
  -2   9  -7 62.1983 11.2821   2
   2  -9  -7 52.1155 10.5716   2
   2  -9  -7 69.6217 10.3522   3
   9   7   2 51.9041 8.11629   2
   9  -2   7 48.7899 9.43528   3
   9   2  -7 57.2650 9.36786   2
   7  -2  -9 53.2256 9.40081   2
  -7  -9  -2 62.5457 11.3770   3
   2  -7   9 53.2045 9.35547   1
   7   9   2 56.2915 9.52708   2
   7   2  -9 61.4544 11.2923   2
   2  -9   7 57.8235 8.24888   1
   7  -9  -2 58.7205 11.0780   3
  -9   7   2 67.4245 11.7315   1
  -7  -2  -9 65.3324 10.2365   1
   2  -9   7 49.7449 8.10933   3
   2   9  -7 33.1449 8.31456   2
  -2  -9  -7 42.8077 8.42626   2
  -2  -9  -7 52.1519 9.35609   3
  -9   2  -7 48.1155 9.50487   1
   9  -2  -7 56.6740 8.27664   3
  -2  -7   9 55.4303 9.55703   1
  -7  -9   2 61.0059 10.6450   3
  -7   9  -2 71.6827 9.96528   1
  -2   7  -9 66.6663 12.9651   2
  -9  -7  -2 60.9881 11.6463   3
   2  -7  -9 64.0414 12.6034   2
  -9  -2   7 58.1506 11.1695   1
   9   7  -2 57.0823 8.74316   2
   2   7   9 58.7505 9.06011   1
  -7  -2  -9 54.4827 8.70542   2
  -7   2   9 37.8854 9.73502   1
   9   2   7 59.7236 11.9949   3
   9  -7   2 37.4915 9.04863   3
   9   7   4 130.282 12.0514   2
   4  -9  -7 146.871 13.6979   3
   4  -7   9 146.389 13.8957   1
  -7  -4   9 152.237 19.5223   1
   4  -9  -7 156.376 15.7671   2
  -9  -7   4 152.159 14.9294   3
  -9   7  -4 161.832 15.2539   1
  -4  -9   7 150.552 12.8007   3
  -4   9  -7 158.851 13.2375   1
  -4   9  -7 156.874 15.6557   2
  -9  -4  -7 157.841 13.7050   1
  -9  -4  -7 170.706 21.1459   3
   4   7  -9 160.593 20.6885   2
  -7   4  -9 173.745 15.7736   1
  -9   4   7 125.144 18.2643   1
  -7  -9  -4 133.625 17.0325   3
   9  -7  -4 130.544 16.9375   3
   9   4  -7 162.633 15.3262   2
  -7   9   4 150.488 14.8183   1
  -4  -7  -9 117.741 15.6559   2
   7  -9   4 134.431 16.5661   3
   7   9  -4 140.569 14.2919   2
   4   9   7 130.405 17.3241   2
   7  -4  -9 149.608 14.3501   2
   9  -4   7 155.813 14.2816   3
  -4   7   9 139.298 17.7175   1
  -4  -9  -7 133.571 13.7474   3
  -7  -9   4 150.503 14.3925   3
   9  -4  -7 129.924 12.2751   3
   4  -9   7 134.710 12.5582   3
   7   9   4 150.629 14.3507   2
  -9  -4   7 130.555 14.1986   1
   7   4  -9 166.881 16.3117   2
  -9  -7  -4 141.362 18.2485   3
  -4  -7   9 146.942 14.5541   1
  -4   7  -9 156.609 16.0552   2
  -9   7   4 121.276 18.2891   1
  -7  -4  -9 157.741 13.8078   2
   4   9  -7 149.037 18.8539   2
  -9   4  -7 173.013 16.2189   1
  -7   4   9 164.339 16.9724   1
   9  -7   4 153.434 15.4735   3
   7  -9  -4 148.617 18.1543   3
  -7   9  -4 149.890 13.3824   1
   9   7  -4 151.325 13.6888   2
  -4   9   7 131.762 14.0604   1
   4  -7  -9 146.697 19.3461   2
  -9  -7   6 36.5854 8.06831   3
  -9   7  -6 28.0889 7.36363   1
   6   9   7 49.8476 9.91476   2
   9  -7  -6 42.3263 8.61979   3
   6  -9  -7 29.1755 7.61111   2
  -6   9  -7 36.1033 7.58452   1
   9   6  -7 46.3036 9.60472   2
   7   9  -6 44.7519 9.86421   2
   6  -9  -7 34.5044 8.09865   3
  -9   6   7 34.8493 9.68667   1
  -7  -9  -6 32.2474 8.33185   3
   9   7   6 30.1577 6.93231   2
  -6  -9   7 37.7537 7.38707   3
  -7   9   6 38.6700 9.25088   1
  -6  -7  -9 40.1885 8.82450   2
  -7   6  -9 26.9013 7.24541   1
  -9  -6  -7 29.0743 9.44477   3
  -6   7   9 26.9114 7.69469   1
   7  -6  -9 33.7112 8.43118   2
   6   7  -9 39.4248 10.2844   2
  -7  -6   9 30.9381 7.58629   1
   7  -9   6 48.8999 9.21951   3
   9  -6   7 32.8660 7.74254   3
   7  -9  -6 46.4154 9.61809   3
   9  -6  -7 21.7885 5.63434   3
   7   9   6 35.6891 8.24655   2
  -6   9   7 35.7243 8.87748   1
   9   6   7 30.7387 6.73275   2
  -9   6  -7 40.2363 9.17036   1
   6  -7  -9 30.7403 8.02863   2
  -9  -6   7 41.6618 8.71976   3
  -6   7  -9 30.4840 7.68403   1
  -9  -6   7 50.2994 9.36974   1
   7   6  -9 52.1249 11.6039   2
  -9  -7  -6 45.2350 10.1313   3
  -6  -7   9 23.2632 6.29928   1
   9   7  -6 24.2915 6.97484   2
  -7  -9   6 49.8791 9.09239   3
  -7   9  -6 40.4703 8.32778   1
  -7   6   9 40.8831 9.89826   1
  -6  -9  -7 43.0574 9.55493   3
  -7  -6  -9 55.8011 9.69517   2
   6  -9   7 35.8763 7.80343   3
   6   9  -7 29.4339 8.77932   2
  -9   7   6 45.4165 11.0079   1
   9  -7   6 38.3704 8.31007   3
   1  -9  -8 142.008 13.1191   3
   8  -9   1 139.130 17.3761   3
   8   9  -1 149.361 13.6322   2
   8  -1  -9 134.351 12.9892   2
  -8  -9  -1 160.226 15.6660   3
   9   1  -8 139.928 12.7236   2
   9  -8  -1 135.689 18.2635   3
  -1   8   9 143.383 14.9196   1
   1   8  -9 128.703 18.1362   2
   1  -9  -8 133.446 17.5701   2
  -9  -8   1 137.035 17.3066   3
  -9   8  -1 132.249 13.4420   1
  -8   9   1 149.079 13.7719   1
  -1  -8  -9 116.137 16.2179   2
  -8  -1   9 162.446 16.6187   1
  -8   1  -9 116.901 15.5970   1
   9  -1   8 157.359 14.1294   3
  -9   1   8 148.393 19.6644   1
   1  -8   9 130.364 12.1777   1
  -9  -1  -8 132.770 13.6563   1
   8   1   9 142.127 13.5460   3
  -1   9  -8 127.703 18.0313   2
   9   8   1 141.963 12.5489   2
  -8   1   9 145.589 18.9010   1
   1  -9   8 123.340 12.3568   1
   9   1   8 139.937 17.5596   3
  -1   8  -9 159.503 20.7137   2
  -9   1  -8 128.384 13.8665   1
   1  -8  -9 169.047 20.6224   2
   8   1  -9 136.779 13.3318   2
   1   9  -8 138.965 18.2239   2
  -1  -9  -8 140.969 13.2713   3
   8   9   1 149.117 13.3448   2
   8  -9  -1 137.772 17.5975   3
  -1  -8   9 125.574 11.9824   1
  -9  -1   8 132.492 18.0994   1
  -9  -8  -1 128.641 17.4946   3
  -8  -9   1 138.785 17.3770   3
  -8   9  -1 127.601 12.5737   1
  -9   8   1 137.698 14.0285   1
  -8  -1  -9 138.065 13.7515   1
   9   8  -1 127.786 12.1822   2
  -1  -9  -8 126.979 16.8603   2
   9  -8   1 135.932 18.2113   3
   8   9  -3 146.334 13.6061   2
   9  -3   8 157.693 13.6212   3
   9   3  -8 132.618 13.4483   2
  -9  -3  -8 142.734 13.4888   1
  -8   3  -9 120.033 15.9755   1
   9   8   3 131.916 12.2206   2
   8  -9   3 149.736 15.1008   3
   3   8  -9 88.2030 15.0756   2
  -9  -8   3 147.012 17.8888   3
  -9   8  -3 116.236 15.0901   1
   3  -8   9 120.380 11.9213   1
  -3   9  -8 109.530 16.6545   2
  -9   3   8 123.616 17.9318   1
  -8  -9  -3 145.176 18.7259   3
  -8  -3   9 140.660 18.1704   1
   9  -8  -3 116.365 16.2540   3
  -8   9   3 125.974 13.4262   1
  -3  -8  -9 120.444 16.3782   2
   8   3   9 107.574 15.6443   3
  -3   8   9 129.159 13.6794   1
   3  -9  -8 147.121 18.4448   2
   3  -9  -8 117.754 12.0769   3
   8  -3  -9 117.158 12.2828   2
   9   8  -3 115.311 14.3397   2
  -3  -9  -8 143.388 13.6284   3
  -8  -3  -9 132.075 12.8110   1
   3  -8  -9 145.132 19.4240   2
  -9   8   3 147.253 15.3955   1
   3  -9   8 132.388 11.6893   1
   3  -9   8 142.488 11.9116   3
   3   9  -8 159.104 20.2891   2
   8   9   3 133.114 13.0341   2
   8   3  -9 132.379 16.7265   2
   9   3   8 98.3495 16.1169   3
   8  -9  -3 135.168 17.7805   3
  -8  -9   3 123.181 15.9776   3
  -8   9  -3 118.491 12.3548   1
  -8   3   9 154.249 20.3773   1
  -3   8  -9 132.090 18.6554   2
  -9  -3   8 124.730 16.9952   1
  -9   3  -8 143.499 18.2382   1
   9  -8   3 149.562 18.6428   3
  -9  -8  -3 125.960 17.0015   3
  -3  -9  -8 101.906 14.6028   2
  -8  -3  -9 124.349 11.7696   2
  -9  -5  -8 49.6654 11.3963   3
   5   9   8 60.5000 11.3591   2
   5  -9  -8 67.5335 12.3136   2
   8   5   9 47.6155 8.53679   1
  -8  -5   9 43.5005 9.47711   1
  -8   5  -9 77.9635 13.1384   1
  -8   9   5 42.4126 10.1194   1
  -5  -8  -9 42.3882 9.46012   2
  -5   9  -8 66.4968 10.2136   1
  -9  -5  -8 60.3192 9.45355   1
  -5   8   9 48.1281 9.96104   1
  -9  -8   5 71.1415 11.7639   3
   5   8  -9 59.2595 12.4613   2
   9   8   5 56.9536 9.47158   2
   8  -9   5 51.2615 10.1568   3
   8   9  -5 51.0382 10.4535   2
  -9   5   8 45.8526 10.8664   1
   9  -5   8 53.5718 9.31727   3
   9   5  -8 52.1691 10.3480   2
   9  -8  -5 65.0496 11.2956   3
  -5   9  -8 60.1018 11.8928   2
  -9   8  -5 68.7123 11.2583   1
  -8  -9  -5 48.5279 10.7432   3
   8   9   5 60.8140 10.2133   2
  -5   8  -9 51.5726 10.7958   2
   9   5   8 56.4289 8.97281   2
   5  -8  -9 48.5979 10.5379   2
  -9   5  -8 48.6726 10.3582   1
   8  -9  -5 58.5445 10.8877   3
  -8  -5  -9 52.2812 9.04305   2
  -8  -9   5 56.4524 9.88321   3
  -8   9  -5 69.6684 11.1622   1
  -8   5   9 37.0419 9.62684   1
  -5  -9  -8 50.8631 10.0232   3
  -5   8  -9 62.3209 10.5013   1
  -9  -5   8 63.7414 11.0621   1
  -5   9   8 69.3991 12.1061   1
   8   5  -9 45.8436 10.1697   2
   5  -9   8 58.3438 9.16637   3
  -9  -8  -5 59.6217 11.9844   3
   9  -8   5 59.6005 10.9286   3
   9   8  -5 43.1913 9.14243   2
  -9   8   5 62.0977 12.6067   1
   5   9  -8 50.8090 11.4375   2
   7   8  -9 47.2773 11.6787   2
  -7   8   9 72.5834 13.1371   1
  -8   7  -9 61.6790 11.4160   1
   8  -9   7 50.2886 9.59676   3
   8   9  -7 60.2189 11.7725   2
  -7   9  -8 57.1882 10.3279   1
   9  -7   8 57.4065 9.76692   3
   9   7  -8 61.9212 12.2255   2
   8   7   9 59.1388 10.8745   2
   7   9   8 54.3203 10.9568   2
  -9  -7  -8 50.2711 11.3972   3
   9  -8  -7 66.4220 11.3129   3
  -9   7   8 37.2812 9.74025   1
  -8  -9  -7 76.7583 14.2726   3
  -9   8  -7 64.5179 11.6881   1
  -8   9   7 57.6319 11.8517   1
   9   8   7 56.0923 10.0686   2
  -9  -8  -7 50.2000 10.9084   3
   9   7   8 60.8181 10.3521   2
  -9   7  -8 64.4083 11.9941   1
   8  -9  -7 69.9296 11.5695   3
  -8   7   9 63.1371 12.5097   1
  -7   8  -9 67.4795 11.5166   1
   8   9   7 65.6780 11.3971   2
  -7   9   8 49.5422 10.5728   1
   7  -9   8 46.5289 8.98726   3
   7   9  -8 65.1856 13.3509   2
   7   8   9 47.5903 10.0808   2
   8   7  -9 62.1074 12.6240   2
  -8   9  -7 70.4663 11.8183   1
  -9   8   7 74.3659 14.3110   1
   9  -8   7 59.4324 10.5101   3
   9   8  -7 58.4840 11.5480   2
  -7  -9  -8 70.7100 13.0442   3
  -9  -9   0 53.2220 11.0118   3
  -9   0  -9 49.5458 10.1811   1
  -9   0   9 39.1031 9.90855   1
  -9   9   0 54.3263 10.0906   1
   0  -9  -9 38.6033 10.0072   2
   0   9  -9 55.5709 12.0742   2
   9  -9   0 57.5471 11.4276   3
   9   0  -9 44.1131 8.33048   2
   9   0   9 48.9425 9.40028   3
   9   9   0 54.4739 9.20729   2
  -9  -9  -2 8.58349 4.64889   3
  -9  -9   2 18.9201 6.45660   3
  -9  -2  -9 9.11688 4.20494   1
  -9  -2   9 15.1824 6.19660   1
  -9   2  -9 18.3224 6.22497   1
  -9   2   9 13.8128 5.90041   1
  -9   9  -2 16.7595 5.18620   1
  -9   9   2 12.9457 4.91007   1
  -2  -9  -9 18.3401 6.50327   2
  -2   9  -9 20.1939 5.94155   2
   2  -9  -9 13.7165 6.35197   2
   2  -9   9 18.1159 4.22481   1
   2   9  -9 4.71938 4.36937   2
   9  -9  -2 14.3838 6.22269   3
   9  -9   2 7.50126 5.46053   3
   9   2  -9 21.0868 5.94549   2
   9   2   9 7.53490 4.25404   3
   9   9  -2 10.1082 4.22040   2
   9   9   2 17.5896 5.22728   2
  -9  -9  -4 32.0334 8.96395   3
  -9  -9   4 42.2738 9.40020   3
  -9  -4  -9 23.7600 5.74610   1
  -9  -4   9 34.6116 8.76577   1
  -9   4  -9 36.8287 9.47406   1
  -9   4   9 45.0437 10.7014   1
  -9   9  -4 47.6906 9.22883   1
  -9   9   4 32.6090 8.52866   1
  -4  -9  -9 36.3965 8.54393   2
  -4   9  -9 41.9780 10.4035   2
   4  -9  -9 35.4769 9.76232   2
   4  -9   9 44.6874 7.69509   1
   4   9  -9 46.8922 11.8102   2
   9  -9  -4 30.1225 8.38801   3
   9  -9   4 47.9267 10.4555   3
   9   4  -9 50.5866 9.99527   2
   9   4   9 32.9293 9.09283   3
   9   9  -4 36.8802 8.18705   2
   9   9   4 30.2183 6.86435   2
  -9  -9  -6 59.4833 12.7432   3
  -9  -9   6 64.1420 11.2843   3
  -9  -6   9 64.4527 11.2331   1
  -9   6  -9 54.1641 11.0494   1
  -9   6   9 77.9259 14.0306   1
  -9   9  -6 78.8887 12.6203   1
  -9   9   6 51.4358 11.2922   1
  -6   9  -9 63.5938 10.9712   1
  -6   9   9 75.4078 12.5945   1
   6  -9  -9 60.8221 12.4340   2
   6   9  -9 55.7116 12.9056   2
   6   9   9 62.3523 12.2828   2
   9  -9  -6 68.5620 12.0945   3
   9  -9   6 50.5146 9.87921   3
   9   6  -9 53.7350 11.5962   2
   9   6   9 62.5287 10.3203   2
   9   9  -6 74.9437 13.1315   2
   9   9   6 53.7068 9.96613   2
  -9  -9  -8 61.9481 12.1858   3
  -9   8  -9 53.1839 10.6156   1
  -9   8   9 59.6102 12.0515   1
  -9   9  -8 55.5847 10.8998   1
  -9   9   8 32.3383 8.54954   1
  -8   9  -9 59.6307 10.8701   1
  -8   9   9 48.5093 10.4611   1
   8   9  -9 41.6486 10.7538   2
   8   9   9 71.5816 12.1204   2
   9  -9   8 53.5033 9.88139   3
   9   8  -9 50.8284 11.2545   2
   9   8   9 51.4930 9.64386   2
   9   9  -8 65.5869 13.0158   2
   9   9   8 53.1050 10.1067   2
 -10   0   0 961.298 51.2739   1
   0 -10   0 962.979 49.7484   3
   0   0 -10 987.286 53.3911   2
   0   0  10 997.866 51.3183   1
   0  10   0 992.214 49.5417   2
  10   0   0 1006.61 51.3268   3
   1  -1 -10 375.845 27.3247   2
   1  -1  10 385.815 25.5565   1
   1   1 -10 380.409 27.0186   2
   1   1  10 367.070 25.1567   1
   1  10  -1 405.440 24.8904   2
   1  10   1 377.292 24.4971   2
  10  -1  -1 350.897 24.6292   3
  10  -1   1 369.704 25.8134   3
  10   1  -1 397.972 26.1088   3
  10   1   1 370.037 26.1996   3
  -1  10  -1 378.614 23.9459   2
  -1  10   1 382.265 24.2031   2
   1 -10  -1 411.900 25.4449   3
   1 -10   1 438.751 25.9082   3
 -10   1   1 392.196 26.6964   1
  -1 -10  -1 407.981 25.6335   3
  -1 -10   1 394.733 25.2863   3
  -1  -1 -10 438.169 28.7244   2
  -1  -1  10 334.023 24.7250   1
  -1   1 -10 344.544 26.4644   2
  -1   1  10 407.058 26.5222   1
 -10  -1   1 380.684 25.6767   1
 -10   1  -1 346.355 24.9385   1
 -10  -1  -1 410.855 25.6111   1
 -10   0   2 31.0156 7.94587   1
  -2 -10   0 41.2472 8.47981   3
   2  10   0 30.5190 6.84959   2
 -10  -2   0 34.4398 7.43585   1
 -10   2   0 23.1004 6.44306   1
  -2   0 -10 14.9705 5.60578   2
  -2   0  10 30.4931 7.59633   1
   0 -10  -2 26.7250 6.31492   3
   0 -10   2 25.7763 6.58371   3
   0  10  -2 23.2592 6.05814   2
   0  10   2 40.7240 8.06360   2
   2   0 -10 31.5947 8.16604   2
   2   0  10 34.3093 7.77986   1
  10  -2   0 25.7407 6.77448   3
  10   2   0 41.2767 9.42185   3
   0  -2  10 28.2744 6.96383   1
   0   2 -10 32.7372 8.92946   2
  10   0  -2 25.8926 6.65306   3
  10   0   2 21.2621 7.04435   3
 -10   0  -2 29.7033 6.95740   1
   2 -10   0 35.5387 7.53780   3
   0  -2 -10 27.5209 7.73167   2
  -2  10   0 24.3785 6.08093   2
   0   2  10 23.3804 6.82584   1
  -2 -10   2 478.269 29.7411   3
  -2 -10  -2 597.586 32.2986   3
   2  -2  10 585.108 32.9029   1
   2   2 -10 570.875 34.4073   2
   2   2  10 475.891 30.4057   1
  -2  -2 -10 577.827 34.0786   2
 -10  -2  -2 514.615 30.1777   1
 -10  -2   2 516.417 32.0967   1
 -10   2  -2 507.660 31.5999   1
 -10   2   2 519.428 34.1460   1
   2  -2 -10 477.320 32.7670   2
  -2   2  10 542.168 33.4232   1
  -2  10  -2 472.004 29.0642   2
  -2  10   2 543.094 30.4230   2
   2  10  -2 550.667 31.1222   2
   2  10   2 419.820 29.1419   2
  10  -2  -2 457.087 29.7616   3
  10  -2   2 563.915 33.4689   3
  10   2  -2 519.236 32.4325   3
  10   2   2 509.103 33.7551   3
   2 -10  -2 465.171 29.8821   3
   2 -10   2 591.093 31.4020   3
  -2   2 -10 478.598 32.6103   2
  -2  -2  10 454.346 30.7483   1
 -10   3  -1 192.164 17.2306   1
 -10   1   3 175.649 18.1344   1
  -3 -10  -1 215.556 17.3599   3
  -3  -1  10 211.406 18.3868   1
  -3   1 -10 184.774 17.2127   2
  10  -1   3 193.335 18.4366   3
 -10  -1  -3 180.645 15.9430   1
  -1  10  -3 209.005 16.3850   2
 -10  -3   1 223.432 18.8198   3
   1 -10  -3 181.475 15.8792   3
   3  -1 -10 255.137 19.8566   2
  -1 -10   3 223.766 17.0674   3
   1   3 -10 190.775 18.3369   2
   3   1  10 211.229 17.1833   1
  10  -3  -1 200.127 17.4071   3
   3 -10   1 212.414 17.0937   3
   3  10  -1 198.266 16.5214   2
  -3  10   1 192.760 15.3342   2
   1  -3  10 221.505 17.5781   1
  -1  -3 -10 233.464 19.7293   2
  10   1  -3 205.064 16.7546   3
  -1   3  10 196.325 17.6602   1
 -10  -3   1 205.381 16.3312   1
   1  10   3 175.572 15.9171   2
 -10  -1   3 183.346 17.7260   1
   3  10   1 197.046 16.5890   2
  -3  -1 -10 208.058 18.0749   2
  -3   1  10 215.699 19.1229   1
  -3  10  -1 220.265 16.0023   2
  10   1   3 213.154 19.0692   3
  -1  10   3 200.373 16.4200   2
  -1  -3  10 200.939 16.8671   1
  -1   3 -10 197.480 18.6872   2
 -10   3   1 204.408 18.2439   1
   1  10  -3 191.124 16.1757   2
 -10   1  -3 222.325 17.4204   1
  -1 -10  -3 197.930 16.5456   3
   3  -1  10 221.787 17.9136   1
   3   1 -10 237.022 19.4559   2
   1   3  10 177.639 16.0981   1
   3 -10  -1 211.120 17.1379   3
  10  -3   1 192.774 17.7439   3
  10  -1  -3 195.470 16.1707   3
 -10  -3  -1 206.003 15.9015   1
 -10  -3  -1 194.373 18.0098   3
  -3 -10   1 211.394 17.0355   3
   1  -3 -10 208.145 19.4803   2
   1 -10   3 221.573 17.0194   3
  -3  -3 -10 67.8149 11.7159   2
  -3  -3  10 49.9114 9.91857   1
  -3   3 -10 46.8359 10.0743   2
  -3 -10   3 48.0678 8.92171   3
  -3 -10  -3 70.6112 11.1985   3
 -10  -3  -3 59.5377 9.22227   1
  10  -3  -3 49.0917 9.22955   3
  10  -3   3 50.4159 10.6091   3
  10   3  -3 69.4539 12.0483   3
   3  -3  10 84.3086 12.4665   1
   3   3 -10 61.6325 11.8585   2
   3   3  10 61.4565 10.1984   1
   3  10  -3 49.8861 9.24921   2
   3  10   3 52.0718 9.37605   2
   3 -10  -3 49.4908 9.45771   3
 -10  -3   3 48.3085 9.65698   1
 -10   3  -3 57.4999 10.4135   1
  -3   3  10 74.7596 14.0271   1
  -3  10   3 71.8702 10.6501   2
   3 -10   3 58.8311 10.2455   3
  10   3   3 43.4800 10.6443   3
  -3  10  -3 53.1549 8.95381   2
 -10   3   3 76.3926 14.0872   1
   3  -3 -10 51.0944 11.1205   2
  10   0  -4 1083.60 54.1854   3
   0  10   4 1112.81 56.1028   2
   0   4 -10 1110.73 60.0538   2
   0   4  10 1090.42 57.3021   1
   4 -10   0 1101.65 55.6375   3
 -10  -4   0 1146.03 55.3557   1
  10   0   4 1184.92 59.9620   3
 -10   4   0 1182.37 59.0423   1
   4   0 -10 1110.19 57.7938   2
  -4   0  10 1170.54 61.9387   1
   0 -10  -4 1081.18 55.4118   3
   0 -10   4 1131.73 54.7482   3
   0  10  -4 1056.62 55.3374   2
  -4  10   0 1112.88 54.1093   2
  -4   0 -10 1091.99 56.7950   2
   0  -4 -10 1183.44 60.3865   2
   4  10   0 1120.84 56.1185   2
 -10   0   4 1083.39 60.3388   1
  -4 -10   0 1093.07 55.9031   3
   0  -4  10 1136.85 57.2866   1
 -10  -4   0 1110.90 58.2909   3
 -10   0  -4 1063.71 56.1449   1
   4   0  10 1085.39 56.9963   1
  10  -4   0 1104.25 57.6142   3
   2  -4  10 71.7815 11.6688   1
   2   4 -10 70.0176 12.6678   2
  -2 -10   4 85.3357 11.5573   3
  -2  -4 -10 83.2784 14.0441   2
 -10  -4   2 111.508 11.1015   1
 -10  -4   2 99.7992 14.9461   3
 -10   4  -2 87.7505 12.7768   1
 -10   2   4 84.0364 14.2762   1
   4 -10   2 74.2298 11.8182   3
  -2   4  10 102.714 15.4082   1
  10  -4  -2 76.6604 12.1500   3
  -4 -10  -2 88.2888 12.6409   3
  -2  10  -4 96.7934 12.4078   2
 -10  -2  -4 69.4842 10.7404   1
  -4  10   2 84.5754 11.1534   2
   4   2  10 86.9245 12.3696   1
   4  -2 -10 79.0915 13.2937   2
  10  -2   4 58.7709 11.9245   3
  -4  -2  10 80.1738 13.5947   1
  -4   2 -10 98.6052 13.7654   2
   4  10  -2 84.2631 12.1019   2
   2 -10  -4 78.5805 11.6225   3
   2  10   4 79.9152 11.8083   2
  10   2  -4 78.8776 12.0643   3
  -2   4 -10 100.700 15.4283   2
  -2 -10  -4 90.2899 12.6521   3
   2 -10   4 91.5819 12.2478   3
  -4 -10   2 89.8055 12.7509   3
  -4  10  -2 99.6192 9.90009   2
 -10  -2   4 92.7350 14.0442   1
  10  -2  -4 95.2023 12.3293   3
 -10   4   2 79.2984 13.8958   1
  10  -4   2 73.3176 12.8812   3
   4 -10  -2 83.6571 12.7318   3
   2  -4 -10 92.8690 15.2767   2
 -10   2  -4 80.3808 12.0356   1
   2  10  -4 73.6861 12.0495   2
  -2  -4  10 75.6262 11.7066   1
  -2  10   4 72.1110 10.9838   2
   4  -2  10 82.7937 12.6630   1
   4   2 -10 77.9055 12.9869   2
 -10  -4  -2 80.0486 10.5630   1
 -10  -4  -2 86.0402 13.9349   3
   2   4  10 107.891 13.7031   1
   4  10   2 101.544 13.3728   2
  10   2   4 100.315 16.0945   3
  -4   2  10 72.0489 14.4919   1
  -4  -2 -10 100.825 13.6543   2
  10  -4  -4 121.703 15.0776   3
 -10  -4  -4 131.401 11.9677   1
 -10  -4   4 97.4086 14.2350   1
 -10  -4  -4 107.020 16.4019   3
  -4  10  -4 130.874 12.6667   2
  -4  10   4 126.447 12.7491   2
 -10  -4   4 144.075 14.5323   3
 -10   4  -4 137.437 14.1145   1
 -10   4   4 110.257 17.4705   1
  -4 -10  -4 134.048 13.7595   3
  -4 -10   4 134.212 12.9884   3
   4 -10  -4 129.944 15.9605   3
  10  -4   4 139.187 17.8446   3
  -4   4 -10 135.603 17.5387   2
  -4   4  10 152.087 21.4750   1
   4   4  10 118.884 12.2334   1
   4  10  -4 131.724 16.1022   2
   4  10   4 134.365 14.0198   2
   4 -10   4 156.455 14.1720   3
   4  -4 -10 118.826 16.9971   2
   4  -4  10 120.150 15.7991   1
   4   4 -10 153.408 18.8416   2
  -4  -4  10 126.816 16.9855   1
  -4  -4 -10 152.302 14.7440   2
  -5  -1  10 645.585 41.6924   1
  -1  -5 -10 652.931 39.2114   2
  -1   5  10 596.705 37.0285   1
  10  -1   5 566.524 37.4119   3
  10   1  -5 601.736 34.1415   3
  10  -5  -1 607.098 37.2759   3
  -5  10   1 588.183 33.2952   2
 -10  -5   1 674.159 38.3951   3
 -10  -5   1 602.089 33.8124   1
   5   1  10 609.223 36.3913   1
   1 -10  -5 606.729 35.0501   3
   5 -10   1 565.116 35.0346   3
   1  10   5 568.274 35.3684   2
   1  -5  10 611.477 36.0473   1
   5  -1 -10 646.550 36.9332   2
  -1 -10   5 639.184 34.3325   3
  -1  10  -5 579.705 35.1894   2
 -10  -1  -5 600.456 35.3903   1
   5  10  -1 612.280 35.5006   2
   1   5 -10 643.376 39.6213   2
 -10   1   5 661.721 40.9138   1
  -5   1 -10 628.068 35.7486   2
  -5 -10  -1 588.725 35.8508   3
 -10   5  -1 609.254 36.6479   1
 -10  -1   5 733.059 41.0812   1
 -10   5   1 632.164 38.3783   1
  -1   5 -10 650.166 39.8198   2
  -1  -5  10 616.428 35.8843   1
  -1  10   5 594.724 35.6731   2
  -5  10  -1 639.929 33.9090   2
   1 -10   5 607.125 33.9151   3
  -5   1  10 643.391 42.4398   1
   5  10   1 605.135 35.1752   2
   1  -5 -10 627.738 39.6385   2
   1   5  10 635.750 36.0153   1
  10  -1  -5 588.315 33.3739   3
   1  10  -5 546.357 35.1004   2
  10  -5   1 617.581 38.2985   3
   5 -10  -1 567.189 35.0687   3
 -10   1  -5 601.585 36.2853   1
  -5  -1 -10 598.491 35.2830   2
 -10  -5  -1 610.939 33.1007   1
 -10  -5  -1 614.502 37.7184   3
   5   1 -10 641.500 37.2710   2
  -5 -10   1 617.548 35.9393   3
  -1 -10  -5 588.548 34.8730   3
  10   1   5 629.205 39.1165   3
 -10  -3  -5 41.6985 7.96358   1
  10  -3   5 28.5636 8.17717   3
  -5  10   3 41.7725 7.71286   2
   5   3  10 52.1784 9.19958   1
   5 -10   3 46.9229 9.18275   3
   5  10  -3 40.3941 8.72735   2
  10  -5  -3 48.0523 9.45622   3
 -10   5  -3 43.9522 9.31503   1
 -10  -5   3 44.4209 8.58824   1
 -10  -5   3 43.4799 9.43118   3
   5  -3 -10 60.5687 11.6110   2
   3  10   5 54.7343 10.7741   2
  10   3  -5 34.6315 7.91284   3
  -5  -3  10 50.6522 11.2223   1
  -5   3 -10 59.8215 10.8511   1
  -5   3 -10 35.7130 7.90987   2
  -3  -5 -10 34.4868 8.43357   2
  -3   5  10 40.0143 10.2967   1
  -3 -10   5 56.2518 9.33760   3
  -3  10  -5 45.9376 9.02812   2
   3   5 -10 29.5749 9.34976   2
   3 -10  -5 46.6709 9.09136   3
 -10   3   5 42.7282 10.5292   1
  -5 -10  -3 30.0834 7.81212   3
   3  -5  10 49.7518 9.76154   1
  -5 -10   3 46.3373 9.23221   3
 -10   5   3 40.8625 10.4672   1
  -5   3  10 49.6314 12.2944   1
  -3  -5  10 51.4572 9.44383   1
 -10  -3   5 47.6358 9.97705   1
  10  -5   3 38.0512 10.0019   3
  -3 -10  -5 23.7429 6.99657   3
   3  -5 -10 51.1199 11.4622   2
  -5  10  -3 60.8969 9.54573   2
  -3  10   5 43.9122 9.03560   2
   3   5  10 48.5232 8.83436   1
   5 -10  -3 47.8168 9.82048   3
  10   3   5 51.1025 11.9663   3
  10  -3  -5 53.6014 9.24380   3
   5   3 -10 41.9841 9.78759   2
  -3   5 -10 43.8403 10.5512   2
 -10  -5  -3 45.1286 7.61356   1
 -10  -5  -3 40.2164 9.75222   3
  10   5  -3 38.9966 7.17929   2
   3  10  -5 37.1295 8.46798   2
   5  10   3 46.1177 9.24425   2
 -10   3  -5 44.1561 9.50665   1
  -5  -3 -10 42.7425 8.87661   2
   3 -10   5 36.3283 7.89758   3
  -5  -5 -10 628.271 37.0958   2
  -5  -5  10 566.161 39.2112   1
  -5 -10   5 556.443 34.0156   3
  10  -5   5 648.196 38.0262   3
 -10  -5  -5 622.580 34.2415   1
  -5   5 -10 578.135 36.3214   1
  -5   5 -10 588.085 37.1653   2
   5  -5 -10 633.449 39.2139   2
   5   5 -10 688.129 41.0214   2
   5   5  10 622.558 35.6653   1
  -5  10  -5 582.660 35.5484   2
  -5   5  10 688.701 41.6597   1
   5  10  -5 676.042 38.4137   2
   5  10   5 564.125 36.4295   2
  10  -5  -5 581.705 34.9586   3
  -5  10   5 651.287 36.9924   2
  10   5  -5 683.083 35.9605   2
 -10  -5  -5 608.801 39.5122   3
 -10  -5   5 538.416 35.6796   1
 -10  -5   5 625.542 37.0389   3
 -10   5  -5 599.584 37.2624   1
 -10   5   5 607.205 41.2957   1
  -5 -10  -5 651.567 37.4743   3
   5 -10   5 651.050 36.0679   3
  -5  10  -5 584.794 33.4287   1
   5 -10  -5 591.340 36.6811   3
  -6 -10   0 10.8108 4.94643   3
   0   6 -10 24.3860 7.93698   2
 -10  -6   0 3.95630 4.23494   3
 -10   6   0 10.8499 4.69591   1
  -6   0 -10 18.4067 5.10343   1
  -6   0  10 16.2664 7.44713   1
   0 -10  -6 14.1034 4.75005   3
  -6  10   0 13.7097 3.93218   1
   0  -6 -10 18.8124 6.85676   2
   0   6  10 14.2780 5.45216   1
   6 -10   0 15.7868 5.88579   3
   0 -10   6 17.1152 4.94843   3
   0  10  -6 9.52457 4.57929   2
   0  10   6 18.6446 5.94655   2
   6  10   0 17.2686 5.78942   2
  10   0  -6 14.3161 4.15945   3
  10   0   6 19.4414 7.09365   3
  10   6   0 19.0641 4.62545   2
   0  -6  10 17.8586 5.44351   1
 -10   0  -6 18.6713 5.96597   1
 -10   0   6 11.6708 5.78589   1
   6   0 -10 12.2437 4.93645   2
  -6   0 -10 16.8831 5.07206   2
  10  -6   0 12.1080 5.92486   3
  10   2  -6 151.295 14.1017   3
  -2  10  -6 206.925 17.5235   2
  -6   2 -10 216.141 16.3505   2
  -6  -2  10 206.896 20.9888   1
 -10  -2  -6 144.230 14.5334   1
  -2 -10   6 227.498 16.2657   3
   2  -6  10 154.103 14.8928   1
  10  -6  -2 202.348 17.9966   3
   2 -10  -6 187.029 16.0855   3
  -2   6  10 163.526 17.5978   1
 -10  -6   2 210.530 18.4075   3
 -10   2   6 129.651 18.6524   1
   6 -10   2 155.890 15.8540   3
   6  10  -2 168.213 15.7611   2
   2  10   6 212.229 17.9418   2
  -2  -6 -10 157.252 16.5668   2
  -6 -10  -2 157.298 16.1385   3
  10  -2   6 164.294 16.7334   3
 -10   6  -2 207.046 17.3207   1
   6   2  10 217.802 17.5866   1
   6  -2 -10 228.090 18.1620   2
   2   6 -10 147.725 20.6149   2
  -6   2 -10 208.523 17.2955   1
  10   6  -2 168.222 13.4483   2
 -10  -2   6 225.474 19.0090   1
   2   6  10 233.022 17.1511   1
  -6  10  -2 220.599 15.2697   1
  10  -2  -6 197.227 15.0960   3
  -6  -2 -10 143.975 14.3832   2
  10  -6   2 137.578 18.6305   3
  10   2   6 240.234 21.0394   3
   6  10   2 219.745 17.3184   2
   2 -10   6 136.150 13.5513   3
   2  10  -6 154.705 16.2948   2
   2  -6 -10 251.076 21.5419   2
 -10   2  -6 220.951 18.1943   1
  -2  10   6 160.676 15.9969   2
  -6 -10   2 201.876 17.1341   3
  -2   6 -10 231.241 20.5070   2
  -2 -10  -6 150.487 15.1059   3
 -10  -6  -2 141.786 18.5224   3
  -2  -6  10 200.769 16.5490   1
 -10   6   2 146.909 19.5659   1
   6 -10  -2 227.262 18.7788   3
   6   2 -10 146.454 15.7490   2
  -6   2  10 173.612 23.5244   1
  10  -4   6 15.1290 5.80979   3
  -6   4 -10 32.7316 7.29411   2
   6  -4 -10 27.3060 7.55272   2
  -4  -6 -10 16.8452 5.85608   2
  -6  -4  10 41.2385 10.3241   1
   6 -10   4 20.2010 6.26486   3
   4  -6  10 16.0874 5.20020   1
 -10   4   6 18.5688 7.76942   1
  -6   4 -10 31.1586 7.63664   1
   6   4  10 26.1670 6.01292   1
 -10  -6   4 32.3070 8.33073   3
 -10   6  -4 27.9385 7.66790   1
  -4  10  -6 29.7627 7.38561   2
 -10  -4  -6 24.6517 5.84234   1
   6  10  -4 19.6651 6.55680   2
  -6 -10  -4 8.82282 4.67194   3
   4  10   6 29.9644 8.23905   2
  -4   6  10 24.6054 7.84717   1
   4 -10  -6 51.7892 9.67139   3
  10  -6  -4 22.8681 6.44182   3
  10   4  -6 14.8992 4.94126   3
  10   4  -6 25.1329 6.57513   2
   4   6 -10 19.0812 7.60663   2
  -4 -10   6 34.3468 7.18584   3
  -4  10   6 26.5158 6.90335   2
  -6 -10   4 19.7354 6.06943   3
 -10  -4   6 25.6845 6.55926   1
  10   4   6 16.9755 7.67890   3
   4 -10   6 20.0343 5.80265   3
   4  -6 -10 39.6674 9.94630   2
 -10  -6  -4 7.58424 4.58214   3
  -4 -10  -6 25.7888 7.20396   3
 -10   4  -6 34.3387 8.45591   1
   4  10  -6 26.4377 8.04056   2
   6  10   4 32.4241 7.89599   2
  10  -6   4 19.3802 6.74097   3
  -6   4  10 23.3403 7.93956   1
 -10   6   4 20.5992 7.36195   1
   6   4 -10 19.5479 7.15634   2
  -4   6 -10 34.7035 8.91719   2
  10  -4  -6 34.5209 7.30385   3
  -6  -4 -10 10.9509 4.84638   2
  -6  10  -4 28.1193 5.99875   1
   4   6  10 19.4585 4.98794   1
   6 -10  -4 32.2778 8.41866   3
  10   6  -4 19.9504 5.52241   2
  -4  -6  10 25.5333 6.78377   1
  -6 -10  -6 396.500 27.5561   3
   6 -10  -6 321.240 25.6621   3
  -6  -6 -10 451.854 27.8158   2
 -10  -6   6 344.123 26.0280   3
 -10  -6  -6 436.738 30.7900   3
  -6  10  -6 367.059 24.5011   1
 -10   6   6 447.214 32.3601   1
  -6 -10   6 347.354 24.5190   3
  10   6  -6 413.678 26.8624   2
  10  -6  -6 346.397 25.0274   3
  -6   6 -10 325.865 25.5203   1
   6 -10   6 447.626 27.0770   3
   6  -6 -10 369.091 27.6252   2
   6  10  -6 454.048 29.8295   2
   6  10   6 316.200 25.5979   2
 -10   6  -6 337.108 26.2000   1
   6   6 -10 424.648 30.9778   2
  10  -6   6 390.596 26.8625   3
  -6  -6  10 329.023 27.9692   1
  -6   6  10 407.474 28.9946   1
   6   6  10 326.052 23.6827   1
  -7   1 -10 55.3462 10.2837   1
 -10   7  -1 58.4208 10.7610   1
  -7  -1  10 48.4692 11.4729   1
   7  10  -1 48.2955 9.39785   2
  -7 -10  -1 59.4327 11.8078   3
   1 -10  -7 53.0098 9.73005   3
  -7   1 -10 63.2652 9.32903   2
   7 -10   1 62.5181 11.5817   3
   1  -7  10 44.9233 8.51314   1
   1   7 -10 48.3120 11.7529   2
  10  -7  -1 61.1778 12.0180   3
   1  10   7 61.7589 11.5494   2
  10   7   1 57.8207 8.51951   2
 -10  -7   1 52.7130 10.9302   3
  -1   7  10 42.7871 9.61635   1
 -10   1   7 49.4044 11.1717   1
  10  -1   7 53.7730 10.6880   3
 -10  -1  -7 46.4025 9.63132   1
  -1 -10   7 62.2513 9.63697   3
   7  -1 -10 56.3446 10.0223   2
  -7  10   1 55.6572 8.81187   1
  -1  -7 -10 50.5011 10.5997   2
  -1  10  -7 60.4795 11.6756   2
  -7  10  -1 56.4690 8.95367   1
   7 -10  -1 71.8311 12.4366   3
 -10  -1   7 50.3468 11.1555   1
  10   7  -1 60.1391 8.79211   2
  -7   1  10 55.2545 12.1792   1
  -1 -10  -7 48.0294 9.10108   3
  -7  -1 -10 58.0212 9.10667   2
  -7 -10   1 50.0440 10.0599   3
 -10   7   1 61.2304 11.8041   1
  -7  -1 -10 48.2898 9.47452   1
   1 -10   7 50.6766 8.49661   3
   1   7  10 48.9535 8.95782   1
   7   1 -10 51.3937 9.64749   2
   1  10  -7 59.7893 11.3185   2
  10  -7   1 62.1897 12.5327   3
   7  10   1 51.7401 9.79006   2
   1  -7 -10 61.4079 12.8457   2
  -1   7 -10 53.4317 11.8044   2
  -1  -7  10 52.2486 9.20313   1
  10  -1  -7 67.7128 9.40203   3
  -1  10   7 48.9598 10.2389   2
 -10  -7  -1 55.9362 11.2056   3
 -10   1  -7 59.1383 10.9141   1
  10   1   7 43.9810 10.6699   3
  -3   7  10 91.1671 14.5937   1
   7  -3 -10 92.0722 13.4874   2
  -7 -10  -3 76.7794 12.9642   3
  10  -3   7 81.9336 12.8835   3
 -10   3   7 84.5922 15.2484   1
 -10   7  -3 71.6962 12.0677   1
  10  -7  -3 97.5201 14.7593   3
  -3 -10   7 75.9408 10.7405   3
   3  10   7 81.7337 13.3684   2
  -3  10  -7 92.6307 14.3827   2
   3 -10  -7 81.9754 12.2070   3
   7   3  10 92.9635 13.2747   1
  -7  10   3 97.7174 12.7563   1
  -7  -3  10 83.6191 15.0187   1
 -10  -7   3 101.952 14.8395   3
 -10  -3  -7 77.2556 11.7285   1
   7 -10   3 89.3790 13.5685   3
  -7   3 -10 84.2615 13.0993   1
   3  -7  10 100.972 13.5708   1
   3   7 -10 95.2780 16.1220   2
  10   7   3 81.3817 10.3760   2
   7  10  -3 80.8148 12.6137   2
  -3  -7 -10 76.7392 13.1247   2
   7   3 -10 91.2817 14.4131   2
   7  10   3 95.1356 13.3733   2
   3 -10   7 95.2999 12.3575   3
   3  -7 -10 88.0744 15.4886   2
 -10  -7  -3 88.5846 14.1534   3
  10   7  -3 84.0801 11.4415   2
   7 -10  -3 79.4872 14.1302   3
  -3  -7  10 84.1854 12.3475   1
 -10   7   3 87.9353 15.0464   1
   3  10  -7 83.4837 14.4212   2
  -7   3  10 86.4658 14.9673   1
  10  -3  -7 64.2888 9.89685   3
  -3   7 -10 97.4143 15.8361   2
  10   3   7 105.513 16.7030   3
 -10  -3   7 93.4106 14.5557   1
  -7  -3 -10 88.1545 12.4041   2
  10  -7   3 100.901 15.7169   3
  -7  10  -3 81.4578 11.2156   1
  -3  10   7 71.5469 12.5821   2
  -3 -10  -7 109.737 14.2811   3
 -10   3  -7 95.0927 14.1888   1
  -7 -10   3 89.2478 13.2391   3
 -10  -5  -7 22.3316 5.51030   1
  10   5  -7 29.7981 7.64091   2
   5  -7  10 21.6859 5.16221   1
   5  10   7 28.0302 8.11489   2
   7  -5 -10 19.9620 6.56774   2
  -5  -7 -10 32.3533 8.04200   2
 -10  -7   5 20.6791 6.24865   3
  10  -7  -5 25.9851 6.89362   3
  -5   7  10 17.2529 5.72584   1
  -7 -10  -5 23.5751 7.08037   3
  -7  -5  10 23.3288 6.21136   1
  -5  10  -7 18.4373 4.78723   1
 -10   5   7 23.4537 8.39321   1
 -10   7  -5 24.7582 7.33659   1
   7 -10   5 19.7115 6.73074   3
 -10  -5  -7 25.4850 7.96418   3
  -5 -10   7 19.9352 5.34252   3
   7  10  -5 24.6212 7.27118   2
  -7   5 -10 27.5425 7.76336   1
   5 -10  -7 31.4448 7.46641   3
   7   5  10 25.3271 5.78837   1
  10  -5   7 22.1975 6.23401   3
   5   7 -10 21.2763 8.07306   2
   5  10  -7 23.2214 8.08144   2
   7   5 -10 14.2938 6.54180   2
 -10  -5   7 23.2742 6.19648   1
 -10   5  -7 26.9475 7.50873   1
  -7  10  -5 35.3671 7.40430   1
  10  -5  -7 25.1111 6.79158   3
  -5 -10  -7 25.3595 6.86405   3
  -7 -10   5 18.8583 5.68130   3
  -5   7 -10 17.3275 6.07929   2
 -10   7   5 23.1437 8.42657   1
  -7  -5 -10 17.5510 5.26142   2
  10  -7   5 35.2993 8.94135   3
   5  -7 -10 22.4805 7.96801   2
  -7   5  10 21.7036 7.68074   1
  10   7  -5 24.4643 6.33927   2
  -5  -7  10 15.4920 4.54763   1
   7 -10  -5 16.2704 5.93624   3
  -5  10   7 31.4918 8.04212   2
   7  10   5 23.5520 6.87254   2
   5 -10   7 23.7379 6.05984   3
 -10  -7  -5 30.9444 8.68595   3
  -7  -7 -10 78.4492 12.2019   2
  -7   7  10 83.1733 14.1202   1
   7 -10  -7 104.088 15.0242   3
   7 -10   7 49.7033 9.58609   3
  -7  10  -7 71.0524 11.3496   1
   7   7 -10 60.2621 12.9767   2
   7  10  -7 81.6355 14.6625   2
   7  10   7 82.7619 13.7421   2
  10  -7  -7 74.8396 11.6193   3
  10  -7   7 65.4058 11.5313   3
  10   7  -7 77.5750 13.2374   2
  -7   7 -10 67.4987 11.7945   1
   7  -7 -10 74.7207 12.9014   2
  -7 -10  -7 76.5919 13.4717   3
 -10  -7  -7 65.3052 12.9582   3
 -10   7  -7 70.9066 12.9150   1
 -10   7   7 69.8975 13.8673   1
 -10   0  -8 7.22135 3.76890   1
   0  -8 -10 7.13979 4.77789   2
  10   8   0 5.30358 2.88306   2
   8 -10   0 5.87883 4.10981   3
   0 -10  -8 6.57962 2.94052   3
  -8   0 -10 2.96207 2.67870   1
  -8   0  10 6.83910 4.48582   1
  10  -8   0 2.67538 3.61328   3
  -8 -10   0 2.42071 3.28202   3
  -8  10   0 4.36515 2.70405   1
 -10  -8   0 5.50696 4.33002   3
   0  -8  10 13.6948 4.10618   1
 -10   0   8 5.55595 3.82463   1
   0   8 -10 8.05572 4.65967   2
   0 -10  -8 5.43146 4.09882   2
   8  10   0 4.16456 3.08417   2
   0  10  -8 9.00125 4.26294   2
   8   0 -10 1.92542 3.07172   2
 -10   8   0 3.49825 3.14586   1
  10   0   8 4.82357 3.26006   3
   8 -10   2 36.3471 9.16675   3
  -8 -10  -2 27.8921 8.07691   3
  10  -8  -2 19.7435 7.08972   3
   2  -8  10 30.1274 6.14939   1
 -10  -2  -8 24.4669 6.40885   1
  10  -2   8 28.9898 7.34327   3
   8  -2 -10 9.75055 4.40937   2
  -8  10   2 38.5425 7.81461   1
  -2  -8 -10 10.7944 5.06458   2
 -10   8  -2 22.4453 6.83350   1
   2  10   8 13.0610 5.91951   2
   2   8 -10 43.0648 10.5235   2
  -8  -2  10 21.9374 7.26547   1
  -8   2 -10 21.2722 6.38419   1
  10   8   2 20.7455 5.52432   2
 -10  -8   2 20.8819 7.27394   3
   2 -10  -8 10.0372 5.49576   2
   2 -10  -8 17.3887 5.35059   3
 -10   2   8 22.4755 7.53605   1
   8  10  -2 28.8405 7.67681   2
  -2   8  10 30.8102 7.77575   1
  -2  10  -8 13.8507 5.93387   2
  10   2   8 16.6760 6.34449   3
 -10   2  -8 19.7661 6.53622   1
   2  10  -8 28.9527 8.51363   2
  -2 -10  -8 23.3118 5.91126   3
  -8  10  -2 15.8798 4.95366   1
  -2   8 -10 18.4441 6.66477   2
   8  10   2 18.7494 5.86234   2
  10  -8   2 23.0140 7.50000   3
  10   8  -2 28.6082 6.31040   2
  -8  -2 -10 40.0661 8.37262   1
   8 -10  -2 12.1645 5.40054   3
  -8 -10   2 25.5782 7.45265   3
   2  -8 -10 22.7507 7.76198   2
 -10  -2   8 33.0443 8.51960   1
 -10  -8  -2 21.3207 7.47402   3
 -10   8   2 30.4564 8.26959   1
  -8   2  10 22.6399 7.59464   1
   8   2 -10 22.4194 6.91194   2
  -2  -8  10 17.4526 4.38119   1
 -10   4   8 105.788 16.3532   1
  10   8   4 78.2866 10.9902   2
   4 -10  -8 88.4929 14.7460   2
   8  10  -4 102.867 14.0622   2
  -4   8  10 113.898 15.5277   1
   8 -10   4 110.819 15.5965   3
 -10   8  -4 71.8631 12.3272   1
  -8 -10  -4 88.4276 14.6583   3
 -10  -4  -8 84.8334 12.2648   1
   4  -8  10 86.3978 12.2526   1
   4   8 -10 103.726 18.2118   2
  -8  10   4 104.537 14.3536   1
 -10  -8   4 78.7035 12.9676   3
  10   4  -8 86.4370 12.9700   2
  10  -4   8 89.3223 12.6106   3
   8  -4 -10 82.8242 12.6750   2
  -4  10  -8 82.4450 13.9692   2
   8   4  10 101.481 14.0419   1
  -4  -8 -10 99.3423 14.7373   2
  -8   4 -10 87.8945 13.9391   1
   4  10   8 69.4174 13.2013   2
  -8  -4  10 70.5115 13.2204   1
  10  -8  -4 99.2255 14.8444   3
   8 -10  -4 75.9365 13.5088   3
  10   4   8 74.6031 14.6327   3
 -10   8   4 76.5260 14.3459   1
 -10  -8  -4 82.4552 14.4042   3
   4  -8 -10 61.7722 12.7577   2
 -10  -4   8 106.051 15.4146   1
   8  10   4 76.3846 11.8862   2
  10  -8   4 92.7145 14.7911   3
  -8  -4 -10 110.403 13.5288   2
  -8 -10   4 87.6331 13.2900   3
   8   4 -10 88.7006 14.3319   2
  -8   4  10 84.8306 14.8031   1
  -4 -10  -8 101.673 14.6054   3
  -8  10  -4 92.9090 12.5537   1
   4 -10   8 103.183 12.3775   3
  10   8  -4 104.172 13.7169   2
   4  10  -8 82.9088 15.1550   2
 -10   4  -8 54.4340 11.2058   1
  -4   8 -10 73.9319 13.8568   2
  -8 -10  -6 80.2410 13.7506   3
  -6  10  -8 62.9739 10.4541   1
  10  -6   8 65.4065 10.6762   3
 -10   6   8 51.3423 12.0088   1
   8 -10   6 59.1060 10.9239   3
 -10  -6  -8 76.6621 14.6616   3
 -10   8  -6 61.6750 11.3065   1
  -6  -8 -10 67.5531 11.7538   2
   8  10  -6 57.2110 11.8574   2
  10   6  -8 53.5028 10.9593   2
  10  -8  -6 66.0821 11.8040   3
  -6   8  10 65.6786 11.9843   1
   6   8 -10 66.4724 13.9826   2
   6  10   8 48.3522 10.6396   2
  -8  -6  10 65.6854 11.5644   1
  -8   6 -10 47.7569 10.3175   1
 -10  -8   6 55.4028 10.8046   3
 -10   6  -8 64.7454 12.5588   1
   6 -10   8 52.3267 9.33881   3
  -8 -10   6 59.2955 10.7469   3
  -8  -6 -10 33.4568 7.35765   2
  -8   6  10 71.0454 13.5228   1
  -8  10  -6 76.3780 12.0431   1
   6  -8 -10 60.0576 12.0376   2
 -10  -8  -6 67.1105 13.1536   3
  -6 -10  -8 63.4891 11.0285   3
   8 -10  -6 65.3999 12.1080   3
   8   6 -10 56.0392 12.1065   2
  -6   8 -10 58.8791 10.7453   1
  10  -8   6 50.5471 10.0558   3
  10   8  -6 58.5448 10.8743   2
   6  10  -8 46.5341 11.5002   2
 -10   8   6 53.2883 12.2372   1
   8  10   6 73.2204 12.2853   2
 -10   8  -8 11.1686 4.90143   1
  -8 -10  -8 3.81565 3.98796   3
  -8   8 -10 12.4757 5.13986   1
 -10  -8  -8 8.76793 5.10171   3
   8  10  -8 1.85175 4.87253   2
   8  10   8 7.93441 4.38319   2
  10  -8   8 0.93158 2.24142   3
  10   8  -8 2.90532 3.78050   2
   8   8  10 14.1747 5.60741   2
  -8  10  -8 12.5778 4.72205   1
   8 -10   8 4.37320 2.34016   3
  -8   8  10 6.67986 3.60537   1
 -10   8   8 4.61995 3.61991   1
   8   8 -10 9.93059 4.49874   2
  -1  10  -9 105.816 16.8990   2
  10  -1   9 136.067 18.0005   3
  -9   1 -10 97.5452 14.9113   1
   1  -9  10 125.112 16.5661   1
   9  10  -1 122.814 12.6546   2
 -10   9  -1 122.946 13.1799   1
 -10  -1  -9 135.890 17.3734   1
 -10   1   9 110.331 17.3743   1
   1 -10  -9 112.052 17.2944   2
   9 -10   1 131.016 18.4180   3
   1   9 -10 124.581 19.3534   2
  10  -9  -1 132.958 18.8854   3
  -1  -9 -10 137.815 19.3348   2
  -9 -10  -1 117.247 16.9530   3
  10   9   1 111.406 11.6806   2
  -9  -1  10 130.043 18.7936   1
  -9  10   1 134.609 13.5530   1
 -10  -9   1 120.317 18.0777   3
   9   1 -10 142.738 13.6351   2
 -10  -9  -1 140.618 19.2929   3
   1  10  -9 118.108 18.2981   2
  -1 -10  -9 149.646 19.2069   2
  -9   1  10 131.354 19.3707   1
  10  -9   1 146.437 19.8862   3
  -1   9 -10 142.663 20.4626   2
 -10  -1   9 130.224 18.1926   1
 -10   1  -9 122.849 17.0810   1
  10   1   9 121.313 16.3279   3
  10   9  -1 121.169 12.2907   2
  -9 -10   1 114.205 16.5555   3
  -9  10  -1 127.689 12.9447   1
   9  10   1 114.707 14.4472   2
 -10   9   1 109.173 15.5239   1
  -9  -1 -10 112.900 15.5982   1
   9 -10  -1 114.485 18.0009   3
   1  -9 -10 115.621 18.1433   2
 -10  -9   3 12.7350 5.72658   3
   3 -10  -9 13.8838 6.42190   2
  -3  -9 -10 17.6652 6.65844   2
  10   9   3 14.9451 4.72271   2
 -10   3   9 13.8869 6.86840   1
  -9 -10  -3 18.1646 6.57715   3
  -3  10  -9 20.3486 6.29197   2
  -9  -3  10 20.9548 6.87171   1
 -10   9  -3 16.4302 5.12561   1
 -10  -3  -9 14.1422 5.12865   1
   9 -10   3 18.9974 6.77734   3
   9  10  -3 16.7614 5.83910   2
  -9  10   3 19.3275 5.28698   1
   3  10   9 11.1426 5.17699   2
   3   9 -10 24.4303 7.94640   2
  10  -9  -3 16.4677 5.74714   3
   3  -9  10 27.2815 5.32062   1
  -9   3 -10 17.0980 6.07075   1
   9   3 -10 25.2708 7.43817   2
  10   9  -3 18.1221 5.58428   2
  -9   3  10 30.5108 9.58064   1
  -9 -10   3 18.5569 6.31749   3
 -10   3  -9 16.9174 7.06149   1
   3  10  -9 18.4014 7.02617   2
 -10  -3   9 9.18830 4.16912   1
 -10   9   3 25.3185 7.46325   1
   9  10   3 14.3343 4.79671   2
  10   3   9 4.65469 3.97863   3
  -3   9 -10 10.7965 5.34033   2
   3  -9 -10 9.21546 6.10574   2
 -10  -9  -3 18.0344 6.84714   3
  10  -9   3 22.0521 7.28910   3
   9 -10  -3 19.3706 6.70194   3
  -9  10  -3 15.0333 4.85742   1
  -9  -3 -10 17.1906 5.52336   1
 -10   5   9 212.787 21.4112   1
  -9 -10  -5 214.771 21.0990   3
  -9  -5  10 279.203 22.2928   1
   5  -9  10 206.725 17.6047   1
  -9  10   5 213.987 20.8745   1
 -10  -9   5 238.618 20.3153   3
 -10   9  -5 244.051 20.2883   1
  -5  -9 -10 232.042 20.6129   2
   5   9 -10 221.920 27.3630   2
   5 -10  -9 246.426 22.2102   2
   9 -10   5 241.136 20.9563   3
   9  10  -5 225.113 20.2621   2
  10   5  -9 221.282 19.5977   2
   9   5  10 252.585 19.1595   1
  10  -9  -5 237.921 20.9701   3
  -9   5 -10 224.742 20.7188   1
  10   9   5 255.917 18.9808   2
   5  10   9 264.901 22.7792   2
   9  10   5 210.933 18.5092   2
   9 -10  -5 253.936 22.2376   3
  -9   5  10 239.787 22.7048   1
  10   9  -5 231.080 19.9960   2
  10   5   9 242.352 23.1628   3
  10  -9   5 252.200 21.6417   3
 -10  -5   9 261.444 21.5386   1
 -10   5  -9 253.610 22.1418   1
 -10  -9  -5 187.595 20.1033   3
   5  10  -9 251.916 24.1992   2
  -9 -10   5 237.839 20.1507   3
  -9  10  -5 240.175 19.6487   1
 -10   9   5 186.508 20.6771   1
   9   5 -10 229.305 20.7964   2
   5  -9 -10 237.254 22.1201   2
  10   7  -9 3.15635 3.21792   2
  -9   7 -10 3.25346 3.74120   1
 -10   7   9 -1.4749 2.39914   1
  -9 -10  -7 2.30193 3.20170   3
   9 -10   7 -0.2952 2.13615   3
   7  10   9 -0.3256 2.94952   2
  -7   9  10 1.88804 2.27902   1
   7   9 -10 0.26179 4.64331   2
 -10   9  -7 -0.9979 2.08017   1
  -7  10  -9 -1.6771 2.01118   1
   9  10  -7 -0.1379 3.30370   2
   9   7  10 0.71069 2.17602   2
  -9  10  -7 3.00738 2.55623   1
   9 -10  -7 1.62187 2.30487   3
   7   9  10 -0.1895 2.96123   2
 -10   9   7 2.71212 3.73046   1
 -10  -9  -7 0.73078 3.30642   3
  -9   7  10 -2.2222 2.47474   1
   9  10   7 -1.7093 1.89801   2
   7  10  -9 -4.0057 3.31701   2
  -7   9 -10 1.95195 3.12005   1
   9   7 -10 -1.0566 2.91409   2
 -10   7  -9 2.40592 2.59539   1
  10  -9   7 0.81123 2.62501   3
  10   9  -7 -0.7274 2.70637   2
 -10   9  -9 75.7011 13.2742   1
 -10   9   9 109.805 16.1868   1
  -9   9 -10 89.3022 14.3924   1
  -9   9  10 69.1559 12.4287   1
  -9  10  -9 68.8732 12.5645   1
   9   9 -10 74.2600 14.4060   2
   9   9  10 69.6068 11.9667   2
   9  10  -9 99.8746 17.2237   2
   9  10   9 75.4371 12.4252   2
  10   9  -9 118.255 17.3571   2
 -10 -10   0 123.341 18.6405   3
 -10   0 -10 101.904 15.7706   1
 -10   0  10 103.208 17.0210   1
 -10  10   0 105.727 14.6888   1
   0 -10 -10 111.268 17.4675   2
   0  10 -10 113.570 18.6015   2
  10 -10   0 117.649 18.0630   3
  10  10   0 118.844 12.2494   2
 -10 -10  -2 254.517 23.0617   3
 -10 -10   2 203.035 20.3722   3
 -10  -2 -10 263.358 20.9934   1
 -10  -2  10 175.736 23.1458   1
 -10   2 -10 223.742 20.8053   1
 -10   2  10 252.302 23.4657   1
 -10  10  -2 215.013 18.8728   1
 -10  10   2 243.223 21.0183   1
  -2 -10 -10 274.824 23.1158   2
  -2  10 -10 224.106 22.9264   2
   2 -10 -10 208.659 22.1797   2
   2  10 -10 282.559 25.2885   2
  10 -10  -2 207.518 21.0416   3
  10 -10   2 313.441 25.3178   3
  10  10  -2 254.772 19.6951   2
  10  10   2 202.088 17.5086   2
 -10 -10  -4 31.0702 9.40673   3
 -10 -10   4 58.8899 11.9247   3
 -10  -4 -10 37.9282 7.90669   1
 -10  -4  10 42.3528 9.58735   1
 -10   4 -10 48.7555 11.1399   1
 -10   4  10 45.8903 12.0029   1
 -10  10  -4 46.9427 9.50081   1
 -10  10   4 41.5626 9.44185   1
  -4  10 -10 48.5261 11.9917   2
   4 -10 -10 46.4422 11.6211   2
   4  10 -10 34.6349 10.7294   2
   4  10  10 41.4399 10.2826   2
  10 -10  -4 50.5363 10.7977   3
  10 -10   4 39.8762 9.85857   3
  10   4 -10 38.1932 8.49358   2
  10  10  -4 37.6956 8.16411   2
  10  10   4 53.9083 9.70578   2
 -10 -10  -6 25.2934 8.53126   3
 -10 -10   6 29.1008 7.20123   3
 -10   6 -10 31.0453 9.00951   1
 -10   6  10 28.5568 8.21983   1
 -10  10  -6 29.3275 7.58362   1
 -10  10   6 15.0011 5.67246   1
   6 -10 -10 41.1453 10.5789   2
   6 -10  10 19.8099 3.89198   1
   6  10 -10 16.2995 7.08056   2
   6  10  10 49.5988 10.8701   2
  10 -10  -6 36.3147 8.91778   3
  10 -10   6 13.2604 5.06709   3
  10   6 -10 19.8077 5.89261   2
  10  10  -6 12.1545 5.08746   2
  10  10   6 40.5308 8.31295   2
 -10 -10  -8 8.59328 4.94707   3
 -10   8 -10 1.99935 2.60730   1
 -10   8  10 3.77250 3.82522   1
 -10  10  -8 6.92827 3.27507   1
  -8  10 -10 8.43992 3.26615   1
   8  10 -10 -2.8275 3.14260   2
   8  10  10 -3.6091 3.29999   2
  10   8 -10 -5.8891 2.71468   2
  10  10  -8 0.20073 3.57831   2
 -11   0  -1 30.9100 7.63077   1
 -11   0   1 40.6593 9.27285   1
  -1 -11   0 37.8038 8.65395   3
  -1  11   0 29.2009 6.75738   2
   0  -1 -11 25.7661 8.46444   2
   0  -1  11 37.6862 8.28816   1
   0   1 -11 25.8616 7.90547   2
   0   1  11 60.1716 10.9974   1
   1 -11   0 40.3454 9.02530   3
   1  11   0 32.0449 7.48514   2
  11   0  -1 33.8880 8.30170   3
  11   0   1 28.7775 7.63133   3
   0 -11  -1 32.5095 7.77572   3
   0 -11   1 32.3536 7.79973   3
   0  11  -1 32.3865 7.26723   2
   0  11   1 29.9717 7.22235   2
   1   0 -11 48.4313 10.1868   2
   1   0  11 35.9231 8.31562   1
  11  -1   0 29.5665 7.29908   3
  11   1   0 23.8347 6.97981   3
 -11   1   0 26.9095 7.29449   1
  -1   0 -11 44.5855 10.0319   2
  -1   0  11 42.4579 9.13802   1
 -11  -1   0 42.3834 8.98512   1
   2 -11   1 146.766 14.4592   3
  11  -2  -1 120.757 15.9133   3
  -2   1 -11 138.620 18.4912   2
  11  -1   2 172.119 16.4230   3
   2  11  -1 127.312 13.2536   2
   1   2 -11 136.830 18.2055   2
   1  -2  11 154.693 14.9755   1
  -1   2  11 142.628 14.9958   1
   1 -11  -2 139.472 14.0183   3
   2   1  11 147.532 14.5568   1
 -11   1   2 161.838 16.7911   1
  -2 -11  -1 150.189 14.6273   3
 -11  -2   1 140.504 14.1457   1
 -11   2  -1 137.299 17.3660   1
  -2  11   1 129.839 12.9209   2
  -1  -2 -11 126.361 18.2092   2
  -2  -1  11 161.428 15.6325   1
  -1  11  -2 139.158 13.5952   2
   1  11   2 142.858 13.8683   2
  11   2   1 142.678 18.3968   3
  -1 -11   2 157.778 14.7023   3
  11   1  -2 117.039 15.7111   3
 -11  -1  -2 130.217 13.5944   1
   2  -1 -11 131.351 17.6797   2
  11  -1  -2 137.647 13.7522   3
   1  11  -2 130.056 13.3286   2
  -2   1  11 150.057 15.7570   1
 -11  -1   2 131.384 17.3120   1
   2  -1  11 164.637 15.4124   1
 -11   2   1 137.548 18.0327   1
   1 -11   2 161.083 14.6411   3
  11   1   2 164.438 19.7886   3
   1   2  11 150.490 14.8192   1
   2 -11  -1 138.316 14.1479   3
   2   1 -11 159.292 16.4062   2
 -11   1  -2 137.554 14.0946   1
   2  11   1 145.487 14.1490   2
  11  -2   1 128.116 16.5658   3
  11   2  -1 136.256 17.2233   3
  -1 -11  -2 128.977 16.0956   3
   1  -2 -11 138.380 19.6275   2
  -1   2 -11 148.978 19.0512   2
  -1  11   2 141.918 13.5037   2
  -1  -2  11 146.425 14.6452   1
  -2  -1 -11 124.279 17.3848   2
  -2  11  -1 158.459 13.9560   2
 -11  -2  -1 139.744 13.5784   1
  -2 -11   1 143.348 14.4142   3
  11  -3   0 6.55229 4.24509   3
   0 -11  -3 -1.0958 1.85497   3
   3   0  11 9.66963 4.45349   1
   3   0 -11 6.46690 3.97392   2
   0  11  -3 4.47401 3.07686   2
   0  11   3 1.01493 2.14741   2
   0   3 -11 5.71051 4.32182   2
   0   3  11 3.60263 3.28157   1
   3 -11   0 -1.0179 2.19468   3
   3  11   0 1.81435 2.78251   2
  11   0  -3 -1.5205 1.45371   3
  11   0   3 3.64741 3.58498   3
  -3 -11   0 -0.3800 1.98358   3
   0  -3  11 2.36803 2.45891   1
   0  -3 -11 4.55557 3.15894   2
  11   3   0 2.31258 3.29297   3
 -11   0  -3 8.15965 4.00274   1
   0 -11   3 1.86867 3.44179   3
 -11   3   0 1.05003 2.35534   1
  -3  11   0 3.98429 2.43128   2
  -3   0  11 3.55030 2.62172   1
 -11  -3   0 7.27743 3.60150   1
 -11   0   3 4.21813 3.80163   1
  -3   0 -11 1.64923 2.81668   2
  -3  11   2 4.88271 3.00406   2
  -2 -11   3 0.82962 2.44410   3
   3   2  11 -1.0083 2.08402   1
  11  -3  -2 0.70272 2.46627   3
  11  -2   3 3.27599 3.70102   3
 -11   3  -2 0.39614 2.29989   1
  11   3   2 1.67245 3.35295   3
   3  11  -2 6.04736 3.57745   2
 -11   2   3 -0.2402 2.77931   1
 -11  -2  -3 0.69264 2.21140   1
  11   2  -3 1.98569 2.31633   3
   2  -3  11 1.52488 2.32280   1
   3  -2 -11 -0.0573 2.49964   2
  -3 -11  -2 0.27539 2.65633   3
   2 -11  -3 1.75350 2.04834   3
  -3  -2  11 1.46158 1.38766   1
  -2  -3 -11 5.44790 3.22678   2
   2  11   3 4.97970 3.28592   2
  -2   3  11 7.93008 4.91889   1
 -11  -3   2 -0.5230 1.42777   1
  -2  11  -3 0.29056 1.93560   2
   2   3 -11 0.91323 3.62149   2
   3 -11   2 0.44984 4.24258   3
  -3   2 -11 2.26330 2.77541   2
  -2  -3  11 0.39865 1.78586   1
  -3   2  11 5.80006 4.78596   1
  -3  -2 -11 3.52974 3.31772   2
   3   2 -11 -1.8252 2.74253   2
  11   3  -2 3.80705 3.23545   3
 -11  -3  -2 5.37394 3.08404   1
  11  -3   2 3.19575 4.40116   3
 -11   2  -3 3.76127 3.00861   1
 -11   3   2 0.39390 3.45060   1
   3 -11  -2 0.76862 2.18547   3
  -2   3 -11 0.12215 2.25271   2
  11   2   3 2.86317 4.18029   3
   2   3  11 1.59697 2.74654   1
  -2 -11  -3 3.93400 3.01760   3
 -11  -2   3 -0.0316 1.89023   1
   3  11   2 3.43487 3.01273   2
  11  -2  -3 -1.4587 1.14757   3
  -3  11  -2 -3.5756 1.43204   2
  -3 -11   2 1.89254 2.60156   3
  -2  11   3 3.31887 2.43891   2
   2  -3 -11 -0.7349 3.39867   2
   2 -11   3 4.09995 3.46630   3
   2  11  -3 3.32786 3.26040   2
   3  -2  11 2.41625 2.19396   1
   1  -4  11 46.7394 9.53508   1
  -4  11   1 70.6235 10.6923   2
 -11  -1  -4 52.2754 9.89126   1
   1   4 -11 55.5001 11.8566   2
   4 -11   1 60.1024 10.9902   3
   4  11  -1 67.4218 11.6499   2
  -4 -11  -1 58.1479 10.6534   3
   4   1  11 78.8096 12.4755   1
  11  -1   4 51.7980 11.5518   3
  11   1  -4 54.2073 9.92514   3
 -11  -4   1 66.0969 10.2749   1
   1  11   4 73.2971 12.4057   2
   4  -1 -11 80.9835 13.5411   2
  -1 -11   4 69.2369 11.1985   3
   1 -11  -4 49.9879 9.86099   3
 -11   4  -1 53.0676 10.6743   1
 -11   1   4 61.8654 12.9926   1
  -4   1 -11 49.7635 10.2229   2
  -1  11  -4 69.5577 11.4083   2
  -1   4  11 56.3970 11.5282   1
  -1  -4 -11 55.7914 11.9177   2
  -4  -1  11 62.0188 12.7690   1
 -11  -4   1 66.0412 12.2350   3
  11  -4  -1 56.6678 10.6520   3
 -11  -4  -1 55.6047 11.7191   3
 -11   1  -4 53.3056 10.2414   1
  -1   4 -11 62.0637 12.8397   2
 -11  -4  -1 70.0025 10.4086   1
   4  11   1 60.1455 10.8119   2
  -4 -11   1 61.0149 10.6939   3
  11   1   4 74.1263 13.7989   3
   4  -1  11 62.8965 11.1006   1
   1 -11   4 57.0169 9.98134   3
   1  11  -4 59.6517 10.5650   2
   4 -11  -1 54.9739 10.4263   3
  -1  11   4 52.3791 10.0207   2
  -1 -11  -4 54.6194 10.1405   3
   1   4  11 58.8390 10.7381   1
  -4   1  11 49.9061 12.3947   1
   1  -4 -11 73.6306 13.7702   2
 -11  -1   4 56.0441 11.4556   1
   4   1 -11 44.6392 9.85716   2
  11  -1  -4 73.4100 10.9558   3
  -1  -4  11 68.7547 11.5383   1
  11  -4   1 48.7324 10.8873   3
 -11   4   1 55.3981 11.7573   1
  -4  -1 -11 64.0255 11.5722   2
  -4  11  -1 65.7943 9.89098   2
   3  -4  11 17.3410 5.47879   1
   3  11   4 9.38737 4.78798   2
   4  -3 -11 2.92737 3.77513   2
   3 -11  -4 12.4907 4.74933   3
  11  -3   4 16.7019 6.65583   3
  -4  11   3 14.6524 4.93329   2
 -11  -3  -4 21.7304 5.69421   1
  -3  11  -4 6.00167 4.48003   2
  -3   4  11 12.4354 7.16701   1
 -11   3   4 11.0966 5.77851   1
  -4 -11  -3 21.1355 6.82114   3
 -11  -4   3 9.32945 3.94914   1
 -11   4  -3 14.8770 5.59219   1
   4   3  11 8.11577 3.60287   1
  11  -4  -3 9.70870 4.01724   3
   4 -11   3 22.8323 6.65673   3
   4  11  -3 16.4021 6.12734   2
  -4  -3  11 8.96074 4.36205   1
  -4   3 -11 7.00145 4.80951   2
   3   4 -11 25.6918 8.21182   2
  11   3  -4 21.9914 6.10924   3
  -3 -11   4 4.99036 3.28703   3
  -3  -4 -11 12.5854 5.08262   2
  -3  11   4 15.5839 4.92555   2
 -11  -3   4 12.1574 5.45168   1
   3 -11   4 22.3980 6.48178   3
  11  -4   3 23.5958 7.72316   3
  11   4  -3 19.5651 6.57568   3
   3   4  11 12.9563 4.69022   1
  11   3   4 8.85071 6.13254   3
   4  -3  11 19.8481 6.28031   1
   3  11  -4 22.7351 6.86868   2
  -4 -11   3 15.3654 5.75073   3
  -3  -4  11 11.3046 4.90244   1
 -11   3  -4 3.24290 2.74245   1
   4   3 -11 14.0128 6.18917   2
  -4  11  -3 11.0244 4.72251   2
   4  11   3 9.13118 4.68279   2
  11  -3  -4 8.44061 3.94039   3
  -4   3  11 9.44615 6.54038   1
  -3 -11  -4 24.2533 7.20812   3
 -11   4   3 19.8509 7.37241   1
  -4  -3 -11 19.6793 6.26189   2
  -3   4 -11 13.9013 5.85452   2
 -11  -4  -3 19.3703 6.65867   3
   3  -4 -11 21.9334 7.36378   2
 -11  -4  -3 18.1117 5.00169   1
   4 -11  -3 11.5452 4.82248   3
  11   0   5 0.73864 3.81496   3
 -11   0   5 1.55932 2.50336   1
   0   5  11 0.40660 2.48071   1
   5 -11   0 0.97820 2.76300   3
   5  11   0 -0.3039 2.75793   2
   0 -11   5 -0.5451 2.14335   3
   0  11  -5 -0.0698 2.39344   2
   0  11   5 1.44034 2.23660   2
  -5 -11   0 -0.9306 2.10068   3
  -5  11   0 1.92107 1.56999   2
   0  -5 -11 -2.0994 2.96026   2
   0  -5  11 2.21984 1.84125   1
   0   5 -11 2.49161 3.49822   2
  -5   0 -11 1.00299 2.01481   2
  -5   0  11 3.73336 3.70575   1
   0 -11  -5 -2.1324 1.56225   3
   5   0  11 0.48759 2.16517   1
   5   0 -11 1.30178 2.93566   2
  11  -5   0 1.05916 2.40868   3
  11   0  -5 1.00009 2.30364   3
 -11   5   0 2.41862 3.39772   1
 -11   0  -5 1.92274 2.44390   1
 -11  -5   0 2.38961 5.01314   3
 -11  -5   0 -3.4472 1.30314   1
  -5  11   2 218.441 16.6968   2
  -2 -11   5 207.649 16.8195   3
 -11   5  -2 226.069 18.8667   1
   2   5 -11 196.906 19.4074   2
  -2   5  11 216.541 20.3447   1
   2  11   5 186.571 17.4444   2
 -11   2   5 195.317 20.1570   1
   2 -11  -5 181.660 16.7328   3
 -11  -5   2 213.624 20.0131   3
  11  -2   5 192.045 19.0121   3
   5 -11   2 195.676 17.5325   3
   5  11  -2 190.279 17.3238   2
  -2  -5 -11 230.103 20.5162   2
  11  -5  -2 210.171 18.4416   3
   5   2  11 182.820 16.8589   1
 -11  -2  -5 163.340 15.6418   1
 -11  -5   2 199.739 16.4543   1
  -5 -11  -2 193.588 17.8524   3
   5  -2 -11 195.187 18.2313   2
  -5   2 -11 214.365 18.2574   2
  -2  11  -5 199.069 17.2957   2
  11   2  -5 189.332 16.4677   3
  -5  -2  11 208.918 20.8654   1
   2  -5  11 183.089 17.1268   1
   2   5  11 199.827 17.1864   1
  11  -5   2 188.888 19.0222   3
  -2   5 -11 205.164 20.0612   2
 -11   2  -5 182.858 17.4308   1
 -11  -5  -2 176.091 22.5966   3
  -2 -11  -5 199.259 17.4752   3
 -11  -2   5 179.354 18.1745   1
  -5   2  11 216.048 22.6343   1
   5  11   2 195.615 17.3158   2
  -5 -11   2 201.068 17.6420   3
   2 -11   5 183.531 16.2106   3
   5   2 -11 196.736 18.6318   2
  11   2   5 209.724 20.1363   3
  -2  -5  11 183.706 17.0402   1
   5  -2  11 206.130 18.3747   1
  -5  -2 -11 192.750 17.0449   2
  -5  11  -2 171.728 15.3012   2
 -11  -5  -2 182.113 14.8096   1
  11  -2  -5 187.579 15.6964   3
   5 -11  -2 171.350 17.1590   3
  -2  11   5 207.268 17.8749   2
   2  -5 -11 196.251 20.4139   2
   2  11  -5 192.215 17.7579   2
 -11   5   2 179.822 18.9896   1
  11  -4   5 2.99789 3.69452   3
  -4  11  -5 10.1168 4.60203   2
   5 -11   4 6.69771 3.96394   3
   4 -11  -5 17.4876 5.99752   3
   5  11  -4 8.26656 4.80061   2
  11   4  -5 15.5845 5.39446   3
   4  11   5 13.4629 5.65914   2
   5  -4 -11 18.6669 6.27093   2
 -11   4   5 3.62999 4.35889   1
 -11   5  -4 6.54143 4.11450   1
 -11  -5   4 15.7889 5.33526   1
 -11  -5   4 20.2087 7.09243   3
  -5   4 -11 12.9110 4.80493   2
   4  -5  11 6.72426 3.08617   1
   4   5 -11 0.25954 3.24134   2
 -11  -4  -5 6.18709 2.71769   1
  -4  -5 -11 0.76986 2.65336   2
   5   4  11 10.5601 3.74309   1
  -5 -11  -4 5.11543 3.47525   3
  -5  -4  11 28.9049 8.69340   1
  -4 -11   5 10.6921 4.57402   3
  -5  11   4 4.63271 2.55895   2
  11  -5  -4 17.8137 5.85289   3
  -4   5  11 13.0864 6.06288   1
   5   4 -11 3.33876 4.20964   2
  11  -5   4 11.2671 5.32457   3
   4  -5 -11 13.6858 6.18678   2
 -11   4  -5 12.1369 5.24255   1
   5  -4  11 3.64060 2.38941   1
   4   5  11 17.1469 5.23315   1
  -5  -4 -11 2.71495 2.89015   2
  -5   4  11 4.20285 3.62641   1
 -11  -4   5 7.55439 4.73755   1
  -4  -5  11 16.3230 6.37299   1
  -4   5 -11 7.65547 5.12635   2
  -5 -11   4 12.0622 5.34717   3
 -11  -5  -4 7.29122 4.55881   3
  -4 -11  -5 3.16775 3.40782   3
  -4  11   5 6.44577 2.95724   2
   4 -11   5 6.01993 3.42419   3
   5  11   4 10.8594 5.49825   2
  11  -4  -5 8.51029 3.89047   3
  11   4   5 2.70084 4.99546   3
 -11   5   4 3.17935 5.14573   1
   4  11  -5 0.86673 2.89955   2
   5 -11  -4 22.7187 7.16474   3
  -6   1 -11 205.566 17.4260   2
  11   1  -6 214.085 16.7386   3
  11  -1   6 199.850 19.5305   3
   1  -6  11 207.295 17.8764   1
   1   6 -11 213.389 20.7516   2
   1  11   6 199.254 18.4473   2
 -11   1   6 233.697 21.7363   1
   6 -11   1 214.467 18.8235   3
   6  -1 -11 210.281 18.5747   2
 -11   6  -1 195.138 18.7546   1
 -11  -1  -6 225.160 18.4736   1
 -11  -6   1 229.603 20.7555   3
  -6 -11  -1 219.270 19.2926   3
   6  11  -1 197.456 17.6565   2
  -1  -6 -11 218.128 20.5104   2
   6   1  11 218.300 18.5897   1
  11  -6  -1 215.132 19.6298   3
  -1   6  11 200.747 19.2529   1
   1 -11  -6 216.760 18.3145   3
  -1 -11   6 203.318 16.6951   3
  -1  11  -6 215.211 18.7978   2
  -6  -1  11 210.626 22.4009   1
 -11  -6  -1 227.779 20.9184   3
 -11   6   1 211.030 20.1225   1
  -1   6 -11 256.320 22.3720   2
   1   6  11 234.490 18.9190   1
  -1 -11  -6 201.531 17.6828   3
 -11  -1   6 209.417 20.0900   1
  11  -1  -6 200.248 16.2139   3
  -1  11   6 207.371 18.6187   2
  -6  -1 -11 197.473 17.1486   2
   1 -11   6 192.156 16.5140   3
   6 -11  -1 201.683 18.8123   3
  -6 -11   1 193.960 18.0281   3
   6  11   1 186.543 17.2892   2
   6  -1  11 229.653 19.7565   1
   6   1 -11 228.132 19.2876   2
  11   1   6 218.604 21.0015   3
 -11   1  -6 206.267 18.4809   1
  11  -6   1 153.803 20.5185   3
   1  11  -6 196.077 18.7309   2
  -6   1  11 213.208 22.5620   1
  -1  -6  11 205.990 17.9124   1
   1  -6 -11 164.763 22.2246   2
  11  -6  -3 92.7124 13.8985   3
  -3   6  11 77.1391 14.7081   1
   3   6 -11 84.6635 15.0977   2
  11  -3   6 87.8826 14.7412   3
  -6   3 -11 79.6370 12.8215   2
  11   3  -6 95.8853 13.3664   3
   3 -11  -6 96.5654 13.7980   3
 -11   3   6 99.1575 16.5143   1
   3  11   6 99.9423 14.3599   2
   6 -11   3 107.596 15.4545   3
   6  11  -3 78.6400 12.9709   2
   6   3  11 82.9142 12.7608   1
  -3  -6 -11 78.4769 14.2334   2
 -11  -6   3 88.4784 15.0598   3
 -11   6  -3 90.6484 14.0490   1
 -11  -3  -6 66.8303 10.8179   1
  -3 -11   6 89.8623 12.3840   3
  -3  11  -6 93.8394 14.1501   2
  -6  -3  11 84.6972 15.9285   1
   6  -3 -11 79.8548 13.2224   2
  -6 -11  -3 79.6409 13.1672   3
   3  -6  11 73.8500 12.4563   1
   3 -11   6 108.794 14.0850   3
   3  11  -6 107.261 16.0810   2
  11  -3  -6 73.1394 10.9026   3
  11  -6   3 64.1385 13.1319   3
  -6   3  11 92.4703 16.5097   1
  -3   6 -11 68.3266 13.0623   2
  -6  -3 -11 71.1121 11.6976   2
   6   3 -11 81.9905 14.1888   2
  11   3   6 104.564 17.2283   3
 -11  -3   6 100.624 15.2109   1
 -11   3  -6 72.1922 12.3848   1
   3   6  11 101.175 13.9781   1
  -3 -11  -6 96.5427 14.2224   3
  -6 -11   3 85.9966 13.0003   3
 -11  -6  -3 89.8772 15.3630   3
  -3  -6  11 86.8532 13.5574   1
   6 -11  -3 94.4445 14.6234   3
 -11   6   3 60.1667 13.1965   1
   3  -6 -11 67.3604 13.6753   2
   6  11   3 91.2314 13.5375   2
  -3  11   6 110.140 15.2215   2
   5  11   6 181.489 18.1472   2
 -11  -6   5 201.869 18.7990   3
   6 -11   5 202.565 17.7944   3
  11  -5   6 179.343 17.8517   3
   5  -6  11 199.275 17.6646   1
  -5 -11   6 193.210 16.4916   3
   5 -11  -6 169.054 17.0059   3
  11   5  -6 161.113 20.3696   3
 -11   5   6 204.595 21.4602   1
  -5   6  11 185.031 18.8973   1
   6  -5 -11 192.190 18.4666   2
  -6  -5  11 190.363 20.1002   1
   6   5  11 199.772 16.9568   1
  11  -6  -5 171.406 16.5091   3
 -11   6  -5 180.400 17.7862   1
  -6 -11  -5 189.987 17.9997   3
   5   6 -11 183.632 23.4215   2
  -5  -6 -11 185.009 17.7933   2
   6  11  -5 191.165 18.7237   2
 -11  -6  -5 182.710 23.2983   3
 -11   6   5 179.973 24.0513   1
   6 -11  -5 189.511 18.3621   3
   6   5 -11 212.634 20.4079   2
   5  -6 -11 190.368 19.4513   2
   5   6  11 170.402 15.5526   1
  11  -5  -6 176.535 16.0092   3
  -5   6 -11 169.769 17.4900   2
   5 -11   6 190.579 17.0760   3
  11  -6   5 182.161 18.3859   3
  -5 -11  -6 180.200 17.5000   3
  -6   5  11 170.953 22.0174   1
 -11  -5   6 189.063 17.4047   1
 -11   5  -6 195.054 18.6684   1
   5  11  -6 214.124 19.9899   2
   6  11   5 193.054 18.2901   2
  -5  11   6 219.893 19.0068   2
  -6  -5 -11 189.072 17.1642   2
  -5  -6  11 193.302 19.6105   1
  -6 -11   5 201.853 17.2577   3
   0   7 -11 44.7999 11.3008   2
 -11   7   0 30.5015 8.42339   1
   0  11   7 44.7863 10.1010   2
   7   0 -11 50.4034 9.97035   2
   7   0  11 30.9391 7.88224   1
   0  11  -7 58.2878 11.5725   2
 -11  -7   0 48.7241 11.5135   3
  -7   0 -11 34.7807 7.45509   2
   7 -11   0 38.3961 9.83149   3
   7  11   0 38.5106 8.52813   2
  -7   0  11 43.4412 11.2663   1
   0 -11  -7 36.8994 8.32993   3
 -11   0  -7 42.2461 9.24683   1
 -11   0   7 32.1203 8.94190   1
  -7 -11   0 39.7390 9.38765   3
   0  -7 -11 67.6817 13.6749   2
   0  -7  11 33.1063 7.36589   1
  11  -7   0 45.9133 10.9979   3
   0   7  11 36.6591 8.48891   1
   0 -11   7 43.7029 8.01494   3
  11   0   7 43.8853 10.2003   3
   2  11   7 0.41026 1.79977   2
 -11  -2  -7 -2.2270 1.63787   1
   2   7 -11 0.61631 2.86638   2
  -2  11  -7 1.54416 2.08944   2
  11  -2   7 1.30185 3.11763   3
   2 -11  -7 3.26176 2.41356   3
   2  -7  11 1.96072 1.42988   1
  -2   7  11 4.02558 3.20435   1
  -7   2 -11 -2.1022 2.05046   1
 -11  -7   2 3.06371 3.38635   3
 -11   7  -2 0.19731 2.64054   1
   7  11  -2 -1.7796 2.31784   2
 -11   2   7 -0.7041 2.68061   1
  -7  -2  11 0.48940 2.91317   1
  -7 -11  -2 -0.8189 2.26523   3
   7 -11   2 2.91558 3.65047   3
  -2  -7 -11 6.90728 3.78473   2
  -2 -11   7 -3.6925 1.51851   3
   7   2  11 2.12141 1.98539   1
  11  -7  -2 0.31667 2.06052   3
   7  -2 -11 -0.7100 2.53834   2
  11  -7   2 1.43662 3.53936   3
 -11   7   2 2.48036 3.58348   1
 -11  -7  -2 1.64462 3.05401   3
   2  -7 -11 3.96121 4.15026   2
   7 -11  -2 2.51365 2.56589   3
  -2   7 -11 10.2553 4.68521   2
  11   2   7 -1.3999 3.01521   3
   7   2 -11 0.37935 2.55892   2
   7  11   2 1.08806 3.04177   2
   2 -11   7 0.05183 1.81819   3
   2  11  -7 -0.3694 2.82591   2
  -7 -11   2 -0.4571 2.72747   3
   2   7  11 0.19961 2.21841   1
 -11  -2   7 0.12667 1.99026   1
  -7   2  11 7.59857 5.04549   1
  -2 -11  -7 2.72820 3.73463   3
  -7  -2 -11 3.54046 2.41272   2
  -2  -7  11 -1.5434 1.63910   1
  -2  11   7 -3.4900 1.90245   2
 -11   2  -7 0.56021 2.40406   1
 -11  -7   4 31.5920 8.59415   3
   7 -11   4 27.7544 8.00675   3
  11  -4   7 30.8954 8.06785   3
   4   7 -11 33.5085 9.71236   2
 -11   4   7 28.1407 8.81167   1
  -7 -11  -4 22.6969 7.52324   3
 -11   7  -4 16.8553 6.19932   1
   4 -11  -7 24.4156 6.39117   3
   4  -7  11 31.3571 6.89194   1
  11  -7  -4 34.9253 8.69076   3
   7  -4 -11 32.5849 7.99446   2
  -7  -4  11 20.5711 7.21552   1
  -7   4 -11 31.4437 8.75598   1
  -4   7  11 22.1571 7.39346   1
   7  11  -4 24.6792 7.71913   2
  -4 -11   7 30.8210 7.40091   3
  -4  11  -7 27.6809 7.72480   2
  -4  -7 -11 32.4465 8.27068   2
 -11  -4  -7 29.4604 6.83240   1
   7   4  11 24.1230 5.98968   1
   4  11   7 26.0595 8.16839   2
  -4  11   7 32.3166 7.47193   2
   4 -11   7 25.8508 6.90092   3
 -11   4  -7 36.8561 9.26827   1
  -7  -4 -11 18.5740 5.21976   2
 -11   7   4 29.1292 9.42795   1
   4  11  -7 29.2000 8.93696   2
  -4  -7  11 16.1506 5.18164   1
  -7 -11   4 17.9208 5.99366   3
   4  -7 -11 31.2878 9.03903   2
 -11  -4   7 23.1236 7.23692   1
   7   4 -11 23.3832 7.32136   2
  11   4   7 23.9740 8.24240   3
   7 -11  -4 21.4613 6.90565   3
  11  -7   4 30.7862 9.02845   3
 -11  -7  -4 33.8170 9.66956   3
  -4 -11  -7 32.5101 8.28845   3
  -4   7 -11 24.4297 7.37587   2
  -7   4  11 30.2246 8.99695   1
   7  11   4 30.3166 7.74871   2
   7  -6 -11 36.4760 8.84102   2
  -7   6 -11 47.9617 10.2222   1
   6 -11  -7 40.3556 9.50203   3
   7  11  -6 39.3306 9.88869   2
 -11  -6  -7 53.8066 12.0645   3
  -7  -6  11 42.9251 9.39017   1
 -11  -7   6 38.9756 9.74327   3
 -11   7  -6 50.9808 10.8379   1
   6  -7  11 30.5479 7.12152   1
   6  11   7 43.1876 10.2132   2
 -11   6   7 39.0398 10.8688   1
  -7 -11  -6 34.1061 9.13956   3
  11  -7  -6 58.0070 10.6560   3
  -6  -7 -11 31.2002 7.89862   2
  11  -6   7 41.0757 9.10064   3
  -6   7  11 36.8724 9.28173   1
   7 -11   6 40.0656 8.89059   3
   6   7 -11 31.8006 10.0973   2
  -7  -6 -11 47.4655 9.74987   2
   6  11  -7 30.6696 9.25973   2
   6 -11   7 47.9811 9.16219   3
   7 -11  -6 55.1513 10.5856   3
 -11   6  -7 47.4604 10.2167   1
 -11   7   6 44.2229 11.0103   1
  11  -7   6 40.0594 9.49910   3
   6  -7 -11 51.0699 11.2445   2
  -7 -11   6 49.3630 9.32937   3
   7  11   6 48.0717 10.3793   2
  -6 -11  -7 32.7574 8.67759   3
  -7   6  11 43.0468 10.6016   1
 -11  -7  -6 35.1149 9.72412   3
   7   6 -11 52.3383 11.9088   2
  -6  -7  11 38.4830 9.60636   1
   1  11   8 13.9154 5.17147   2
  -8  -1  11 18.2362 6.30405   1
  -8 -11  -1 7.73471 4.88581   3
  11  -1   8 16.2553 5.71764   3
   8  11  -1 18.7503 5.79300   2
   1  -8  11 14.8277 4.41816   1
   8  -1 -11 18.1934 5.72758   2
 -11   1   8 9.43808 5.00163   1
 -11  -8   1 21.9829 7.85034   3
 -11   8  -1 13.5740 5.11287   1
  -1  -8 -11 11.1166 6.02903   2
 -11  -1  -8 11.9553 5.17586   1
  11  -8  -1 18.6783 7.44485   3
  -8   1 -11 9.62788 4.52690   1
   8 -11   1 13.1209 6.43624   3
   1   8 -11 16.8882 7.34505   2
  -1  11  -8 18.0386 6.43458   2
   1 -11  -8 9.29978 4.03315   3
  -1  11   8 7.18214 4.67219   2
   8   1 -11 6.17053 3.36722   2
 -11  -1   8 9.28997 4.75289   1
 -11  -8  -1 7.92115 5.91227   3
  11   1   8 13.0176 5.63320   3
   8 -11  -1 14.4873 5.89045   3
 -11   8   1 11.7250 5.77157   1
  -8  -1 -11 14.4446 5.63974   1
 -11   1  -8 20.5804 7.15866   1
  -1  -8  11 14.8735 4.67830   1
  -8   1  11 11.3578 5.82456   1
   1  11  -8 11.5330 5.15230   2
  -1 -11  -8 17.2769 5.29091   3
  -1   8 -11 11.9499 5.88272   2
   8  11   1 18.2745 5.67531   2
   1  -8 -11 12.6146 5.92282   2
  11  -8   1 11.7192 6.49041   3
  -8 -11   1 16.1999 6.35597   3
   3   8 -11 137.778 20.2584   2
   3  -8  11 138.788 14.2011   1
 -11  -3  -8 169.078 15.7964   1
  -3   8  11 154.161 16.5839   1
 -11   3   8 133.109 19.3960   1
  11  -3   8 152.087 15.4168   3
   8   3  11 181.759 16.6014   1
  -3  11  -8 157.851 21.0608   2
  -3  -8 -11 164.676 20.9171   2
  -8   3 -11 173.747 17.1405   1
   3  11   8 184.678 18.3258   2
   8 -11   3 173.497 21.1912   3
  11  -8  -3 174.585 17.6957   3
 -11  -8   3 189.103 18.5284   3
  -8 -11  -3 128.953 18.7700   3
   8  -3 -11 157.888 15.3394   2
   8  11  -3 140.887 14.8290   2
 -11   8  -3 171.029 16.7160   1
  -8  -3  11 150.141 20.4764   1
   3  -8 -11 144.805 21.1914   2
  -8   3  11 151.732 21.1497   1
 -11   8   3 148.296 20.9976   1
  11  -8   3 154.043 21.0050   3
   8   3 -11 152.536 19.2778   2
  11   3   8 162.093 21.1954   3
 -11   3  -8 145.799 19.1459   1
  -8 -11   3 178.366 17.0698   3
 -11  -8  -3 142.059 20.4234   3
   8  11   3 178.690 16.3471   2
 -11  -3   8 157.978 16.4453   1
   3  11  -8 168.167 21.3234   2
   8 -11  -3 168.049 21.3488   3
  -3  11   8 154.540 20.2815   2
  -3   8 -11 170.232 22.2048   2
  -3 -11  -8 127.762 16.8917   3
  11  -5   8 6.02184 3.62898   3
   5  11   8 6.50189 4.30202   2
   5  -8  11 12.7811 2.68314   1
  -5  -8 -11 6.51852 4.02634   2
   8  11  -5 11.9659 5.63833   2
  -8 -11  -5 5.66353 3.70315   3
   8 -11   5 21.8139 7.31723   3
  -8   5 -11 14.2806 5.38171   1
 -11  -8   5 17.1073 6.66983   3
 -11   8  -5 14.0727 5.42039   1
  -8  -5  11 7.73353 3.93681   1
   8   5  11 14.2636 3.93688   1
 -11   5   8 30.0357 9.23418   1
  -5   8  11 18.1028 5.78400   1
  11  -8  -5 14.9264 4.78917   3
   5   8 -11 13.2100 7.21385   2
 -11  -8  -5 11.3913 6.33550   3
   8   5 -11 18.3106 6.03240   2
 -11  -5   8 16.0340 4.84874   1
  -8 -11   5 9.26466 4.59218   3
  -8   5  11 23.2702 8.04864   1
 -11   8   5 2.82963 3.94292   1
  -8  -5 -11 15.5686 4.56606   2
  11  -8   5 23.3237 7.60432   3
   5  -8 -11 19.8244 6.92077   2
   8 -11  -5 14.0465 5.08879   3
 -11   5  -8 17.8236 6.51245   1
  -5  11   8 10.9178 5.12529   2
  11   5   8 24.7231 8.03932   3
   5  11  -8 16.0796 6.94671   2
  -5 -11  -8 21.9691 7.08860   3
   8  11   5 18.0117 5.71936   2
   7  11   8 7.19008 4.69805   2
 -11   7   8 10.0100 4.79451   1
  -7   8  11 8.36948 3.66444   1
   7   8 -11 9.53672 5.52462   2
 -11   8  -7 10.1655 5.36757   1
  11  -7   8 20.2223 5.09962   3
  -8   7 -11 16.5716 6.15131   1
   8 -11   7 5.51778 3.59946   3
 -11  -7  -8 12.3858 5.85752   3
  -8 -11  -7 14.6830 6.03779   3
   8  11  -7 8.32524 5.39751   2
 -11   8   7 14.2959 5.81394   1
   8  11   7 6.65202 4.31999   2
  -7 -11  -8 19.7792 6.62142   3
  11  -8   7 14.3056 5.36251   3
   8 -11  -7 12.3988 5.12878   3
 -11   7  -8 13.1257 6.17616   1
   8   7 -11 4.21362 4.00921   2
  -8   7  11 12.8353 4.65091   1
  -8  -7 -11 7.78682 2.63728   2
 -11  -8  -7 7.45934 5.77808   3
   7  11  -8 12.3243 6.68636   2
   0  11   9 6.41784 4.27089   2
  11  -9   0 2.21713 3.81286   3
 -11   0  -9 4.01226 2.51383   1
   9   0 -11 3.42844 2.85147   2
 -11   9   0 7.01376 3.92454   1
   0   9 -11 6.92221 4.47432   2
  -9 -11   0 9.95064 5.64425   3
   0  -9 -11 4.69597 4.60677   2
 -11  -9   0 5.44113 4.57271   3
  -9   0 -11 5.42992 3.36449   1
 -11   0   9 5.71389 4.26335   1
  -9   0  11 5.31061 4.27317   1
   9 -11   0 0.15544 3.47392   3
   9  11   0 8.14762 4.17576   2
   0  11  -9 -0.9854 2.58958   2
  11   0   9 1.17275 2.40855   3
 -11  -9   2 52.4301 11.4008   3
  -9 -11  -2 38.9804 9.99059   3
   2   9 -11 43.5718 11.7887   2
   9 -11   2 62.3723 12.5834   3
  -9  -2  11 50.9998 11.6403   1
   9  11  -2 51.0265 9.88019   2
  -2  -9 -11 45.6535 11.0138   2
   2  11   9 66.1864 13.0087   2
  -2  11  -9 66.1874 13.8465   2
  -9   2 -11 62.7471 11.9481   1
 -11  -2  -9 37.0370 8.88615   1
 -11   2   9 53.1271 12.1282   1
 -11   9  -2 44.6374 9.51279   1
   2  -9  11 47.3776 8.07959   1
  11  -9  -2 54.8297 12.3072   3
  -9 -11   2 55.3588 11.7739   3
  11   2   9 40.5688 9.67313   3
  -2  11   9 48.2304 11.3246   2
 -11  -9  -2 36.6027 9.66390   3
 -11   2  -9 43.1331 10.1303   1
   2  11  -9 40.1702 10.1216   2
   9  11   2 38.0311 8.59154   2
 -11  -2   9 54.0228 11.1230   1
   9   2 -11 61.8808 10.8205   2
 -11   9   2 49.7194 11.4333   1
  11  -9   2 44.8282 11.0191   3
  -9  -2 -11 48.3243 9.75673   1
   9 -11  -2 52.7604 11.6713   3
  -9   2  11 48.9614 11.6294   1
  -2   9 -11 52.4257 12.0649   2
   2  -9 -11 53.4485 12.4698   2
  -4  -9 -11 4.39058 3.94282   2
   4   9 -11 12.3333 7.14400   2
 -11  -4  -9 5.40903 2.27087   1
   9  11  -4 9.68451 4.47024   2
  11  -9  -4 8.24816 3.60872   3
  -9  -4  11 10.3971 3.87992   1
  -9 -11  -4 8.99191 4.60371   3
 -11  -9   4 8.13330 4.43107   3
   4  -9  11 7.89517 2.19153   1
   9   4  11 9.87050 3.46319   1
 -11   4   9 10.9315 5.63202   1
   9 -11   4 4.86950 4.10134   3
  -4  11  -9 5.69487 4.31769   2
   4  11   9 10.7020 5.52046   2
 -11   9  -4 16.3441 5.76844   1
  -9   4 -11 7.67689 4.91667   1
 -11   4  -9 7.86520 4.94845   1
  -9   4  11 -1.0293 3.39151   1
 -11  -4   9 13.7465 5.87616   1
  -9 -11   4 13.6229 5.07998   3
 -11   9   4 7.52449 4.20231   1
  -4   9 -11 15.2553 5.27052   2
   4  -9 -11 6.64272 5.05603   2
   4  11  -9 8.69380 6.14202   2
 -11  -9  -4 11.1359 5.61271   3
   9  11   4 10.2693 4.19830   2
   9 -11  -4 17.8459 6.79391   3
  11  -9   4 11.0932 5.68408   3
   9   4 -11 8.89146 4.62357   2
  -4  11   9 6.55788 4.72539   2
  11   4   9 12.5352 5.64347   3
 -11  -9   6 26.7375 8.30192   3
   6  -9  11 38.6514 7.78673   1
  -9 -11  -6 45.9064 11.1100   3
  -9   6 -11 30.0520 8.50642   1
   6   9 -11 30.2699 10.0015   2
 -11   6   9 33.8464 9.35064   1
   6  11   9 43.6162 10.1226   2
   9 -11   6 30.4072 7.50070   3
   9  11  -6 29.4944 8.28611   2
 -11   9  -6 43.4513 9.36454   1
  11  -9  -6 43.3987 9.16709   3
   6  -9 -11 34.0152 9.28913   2
   9 -11  -6 31.3863 8.16905   3
  -9 -11   6 39.9671 8.81475   3
 -11  -9  -6 31.6758 9.74915   3
 -11   6  -9 37.6382 10.0652   1
   6  11  -9 28.9031 9.91567   2
 -11   9   6 29.0082 9.09647   1
   9   6 -11 40.3576 9.93367   2
  -9   6  11 26.8255 8.33050   1
   6   9  11 41.3795 9.71895   2
  11   6   9 46.8646 12.8533   3
   9  11   6 30.7982 7.29819   2
  11  -9   6 49.2843 10.0963   3
 -11   8   9 4.56568 4.26076   1
  -8   9  11 3.76175 3.52606   1
   8   9 -11 7.40941 4.62444   2
  -9 -11  -8 9.20857 4.68246   3
   9  11  -8 7.81839 4.49156   2
   8  11   9 8.29717 4.27202   2
  -9   8 -11 10.9288 4.53934   1
 -11   9  -8 13.9069 5.48378   1
   9  11   8 19.1318 5.54775   2
  -9   8  11 5.39596 2.99301   1
   8  11  -9 7.43852 5.27647   2
 -11   9   8 9.99786 4.43825   1
 -11   8  -9 4.05664 4.24054   1
   9   8 -11 13.9088 6.52058   2
   8   9  11 9.03686 4.37275   2
  11  -9   8 -1.9161 2.91349   3
 -11  -9  -8 7.16022 4.35879   3
  10 -11   1 120.905 19.9925   3
 -11  -1 -10 98.3985 14.9970   1
  10  11  -1 119.526 15.2612   2
  -1 -10 -11 120.720 19.0564   2
 -11 -10   1 125.525 18.4806   3
 -11  10  -1 101.702 15.0704   1
 -11   1  10 115.654 18.4424   1
 -10 -11  -1 96.4058 16.3614   3
  -1  11 -10 105.004 17.6804   2
   1  11  10 119.456 18.5764   2
 -10  -1  11 100.024 16.8814   1
 -10   1 -11 92.1940 14.8387   1
   1  10 -11 100.787 18.0794   2
  11 -10  -1 87.6640 16.0188   3
 -11   1 -10 114.477 16.9256   1
 -11  10   1 113.889 16.3110   1
 -10  -1 -11 94.7308 14.6801   1
  10  11   1 115.982 14.9437   2
  11 -10   1 124.422 19.5487   3
 -10   1  11 100.983 17.1808   1
  10 -11  -1 91.8925 16.5045   3
   1  11 -10 105.006 18.1679   2
  -1  10 -11 111.825 19.0820   2
 -10 -11   1 97.1530 16.7583   3
   1 -10 -11 111.768 19.0930   2
 -11  -1  10 102.494 17.0302   1
 -11 -10  -1 107.267 18.0029   3
 -11   3  10 66.5738 14.0105   1
  11 -10  -3 60.7419 12.9795   3
 -10  -3  11 59.9517 12.1189   1
  -3  11 -10 47.5416 11.8076   2
 -10   3 -11 52.5139 11.4617   1
  10 -11   3 59.4139 13.4820   3
  10  11  -3 56.1350 10.4129   2
   3  11  10 48.1602 11.4789   2
  -3 -10 -11 39.7073 9.64247   2
  10   3  11 29.6484 7.62993   1
 -11  10  -3 42.8570 8.92560   1
 -10 -11  -3 71.3133 14.2631   3
   3  10 -11 39.3547 11.4112   2
 -11  -3 -10 61.7847 10.7379   1
 -11 -10   3 52.0320 11.0451   3
   3 -10 -11 58.3835 13.4646   2
 -10   3  11 71.5930 14.0656   1
  10  11   3 57.0080 9.95741   2
 -11 -10  -3 49.0095 11.3900   3
  10 -11  -3 77.8983 14.5299   3
  -3  10 -11 42.8043 10.0729   2
   3  11 -10 56.0040 12.9789   2
 -11  -3  10 62.1866 12.5230   1
 -10 -11   3 52.2497 11.2317   3
 -11  10   3 64.0687 12.2057   1
  11 -10   3 42.8427 10.9388   3
 -11   3 -10 47.3765 10.6469   1
 -10  -5  11 37.0223 8.37117   1
  10  11  -5 33.3220 8.13038   2
  11 -10  -5 40.7549 9.25392   3
 -11   5  10 35.9701 9.81627   1
   5  11  10 28.7055 8.16876   2
  10 -11   5 46.6689 10.4414   3
   5  10 -11 49.4686 12.9963   2
 -10   5 -11 29.7845 8.89145   1
 -10 -11  -5 47.7993 10.9890   3
 -11 -10   5 49.4654 10.3625   3
 -11  10  -5 42.4159 9.28834   1
  -5  11  10 41.4794 9.07397   2
   5  10  11 20.8972 7.28524   2
  11 -10   5 63.8205 12.8565   3
  10   5 -11 35.7983 8.74197   2
 -11  -5  10 30.3618 6.90584   1
  10  11   5 36.4104 7.56774   2
 -11   5 -10 26.8671 8.24274   1
   5  11 -10 45.6043 12.5472   2
 -11 -10  -5 47.5220 11.3450   3
 -10 -11   5 34.2461 8.58890   3
   5 -10 -11 52.2265 11.8836   2
 -11  10   5 30.2076 8.91763   1
 -10   5  11 28.1882 8.51147   1
  10 -11  -5 42.4520 10.1664   3
  10  11  -7 43.0877 10.0702   2
 -11   7  10 44.4632 11.1679   1
 -10 -11  -7 39.7602 8.97811   3
   7 -10  11 44.7847 7.89567   1
 -11  10  -7 47.7962 10.3619   1
  10 -11   7 49.4911 9.99470   3
   7  11  10 38.2018 9.14909   2
  10  11   7 44.4203 10.7527   2
   7  10  11 55.6683 10.6889   2
 -11  10   7 50.1428 11.1446   1
 -10   7  11 52.6858 10.5735   1
 -11 -10  -7 45.0256 10.4603   3
  10   7 -11 57.7562 11.4603   2
  11 -10   7 44.4574 8.80560   3
 -11 -11   0 -2.8501 3.11461   3
 -11   0 -11 -1.6359 2.21587   1
 -11   0  11 1.16283 3.26877   1
   0 -11 -11 -1.7081 2.72792   2
   0  11 -11 2.91217 4.05417   2
  11 -11   0 -0.6162 2.89363   3
 -11 -11  -2 27.4836 8.56449   3
 -11 -11   2 33.6058 9.34243   3
 -11  -2 -11 33.8262 8.16583   1
 -11  -2  11 46.5189 10.8153   1
 -11   2 -11 48.6604 11.2825   1
 -11   2  11 42.3287 10.7222   1
  -2  11 -11 42.5583 10.9564   2
   2 -11 -11 55.2087 12.3869   2
   2  11 -11 9.96564 6.00565   2
   2  11  11 16.5902 6.35730   2
  11 -11  -2 60.8155 13.4338   3
  11 -11   2 23.9456 8.56116   3
  11  11  -2 38.3774 8.48598   2
 -11 -11  -4 9.51399 6.79793   3
 -11 -11   4 15.4836 5.32102   3
 -11  -4  11 33.3146 7.99517   1
 -11   4 -11 34.5332 8.94342   1
 -11   4  11 12.5929 4.88705   1
   4 -11 -11 28.5178 9.36457   2
   4  11 -11 19.3348 8.40874   2
   4  11  11 10.4540 5.38168   2
  11 -11  -4 20.7231 6.71983   3
  11 -11   4 20.2801 6.59528   3
  11   4  11 17.6234 5.12744   1
  11  11  -4 11.7238 4.99389   2
  11 -11  -6 70.6068 11.7448   3
 -12   0   0 2.73564 2.63814   1
   0 -12   0 -0.6264 2.54178   3
   0   0 -12 0.69851 1.96871   2
   0   0  12 1.30540 3.00087   1
   0  12   0 1.00144 1.90642   2
  12   0   0 2.87766 2.51190   3
  -1   1  12 20.9072 7.09486   1
  -1  12  -1 23.0465 6.08988   2
  -1  12   1 29.6799 7.18606   2
   1 -12  -1 20.8564 6.92049   3
   1 -12   1 21.9866 6.85577   3
   1  -1 -12 29.0625 8.78502   2
   1  -1  12 19.4317 6.24357   1
   1   1 -12 24.1089 7.90715   2
   1   1  12 23.1511 7.50809   1
   1  12  -1 20.8353 6.31079   2
   1  12   1 20.9579 6.16148   2
  12  -1  -1 20.9748 6.23813   3
  12  -1   1 9.81889 5.31160   3
  12   1  -1 25.8680 7.15435   3
  12   1   1 22.0610 6.35150   3
  -1  -1  12 25.1921 7.43084   1
 -12  -1  -1 18.1373 5.92250   1
 -12  -1   1 25.6562 7.40376   1
 -12   1  -1 21.6666 7.08492   1
 -12   1   1 23.2158 7.52774   1
  -1 -12  -1 16.9303 6.32556   3
  -1 -12   1 29.7467 7.87690   3
  -1  -1 -12 23.0873 7.51658   2
  -1   1 -12 24.4163 7.64466   2
 -12   0   2 122.583 17.8472   1
  12   0   2 152.075 18.6182   3
  -2  12   0 145.914 13.9810   2
 -12  -2   0 159.222 15.3946   1
 -12   2   0 156.719 16.3984   1
  -2   0 -12 154.112 20.1497   2
  -2   0  12 119.022 16.4178   1
   0 -12  -2 142.177 17.8866   3
   0 -12   2 148.761 15.2207   3
   0  12  -2 144.792 14.4940   2
   0  12   2 135.437 14.0938   2
   2   0 -12 159.228 20.1915   2
   2   0  12 149.618 15.4602   1
  12  -2   0 157.286 15.6537   3
  12   2   0 143.686 18.6889   3
  12   0  -2 128.825 16.2247   3
 -12   0  -2 138.498 14.5855   1
   0   2  12 147.655 15.3462   1
   2 -12   0 139.035 17.2274   3
   2  12   0 141.490 14.4361   2
   0   2 -12 133.535 18.7319   2
   0  -2 -12 112.270 17.3930   2
   0  -2  12 95.0313 14.7546   1
  -2 -12   0 151.151 18.6821   3
  -2   2  12 570.046 36.9904   1
  -2  12  -2 578.589 33.4984   2
  -2  12   2 504.397 32.5546   2
  -2   2 -12 550.845 36.9897   2
   2  -2 -12 594.238 37.8951   2
  -2  -2 -12 502.110 35.9033   2
  -2  -2  12 512.559 34.9992   1
  -2 -12   2 562.189 34.2702   3
 -12   2  -2 600.374 36.1138   1
 -12   2   2 522.625 36.9202   1
  -2 -12  -2 546.069 34.4508   3
 -12  -2  -2 495.291 32.4335   1
 -12  -2   2 556.368 35.5249   1
   2   2  12 530.442 34.1678   1
   2  12  -2 505.873 33.2357   2
   2  12   2 534.271 33.7309   2
  12  -2  -2 565.551 33.7348   3
  12  -2   2 571.633 35.9905   3
  12   2  -2 503.163 33.6393   3
  12   2   2 528.524 35.4502   3
   2 -12  -2 571.419 34.3996   3
   2 -12   2 532.640 33.6774   3
   2   2 -12 527.155 35.8814   2
   2  -2  12 548.421 35.3474   1
  -3  -1  12 160.820 16.9919   1
  -3  12   1 171.906 15.4274   2
  -3   1 -12 178.812 18.1584   2
 -12  -1  -3 158.653 15.4415   1
  12   3   1 156.609 20.1578   3
 -12   3  -1 169.180 17.1664   1
 -12   1   3 175.713 22.4684   1
  -3 -12  -1 157.447 19.3800   3
   3  -1 -12 198.768 18.9324   2
  -1  -3 -12 128.789 18.8215   2
  -1 -12   3 148.700 15.1717   3
   3   1  12 173.051 16.6609   1
  12  -3  -1 166.736 16.2700   3
   1 -12  -3 178.094 16.6750   3
  -1   3  12 156.992 16.8462   1
 -12  -3   1 149.164 15.1166   1
   1  -3  12 174.222 16.8879   1
   1   3 -12 128.624 18.6577   2
  -1  12  -3 150.014 15.0443   2
  12   1  -3 151.364 15.3484   3
   3 -12   1 168.282 16.2342   3
   3  12  -1 161.942 15.7519   2
   1  12   3 181.398 16.5216   2
  12  -1   3 155.091 19.4719   3
  12  -1  -3 154.260 14.8517   3
   3 -12  -1 152.254 15.6887   3
   1   3  12 161.558 16.1498   1
  -1 -12  -3 150.894 15.7468   3
  -3 -12   1 178.679 16.7550   3
 -12  -3  -1 168.071 15.4377   1
   1  -3 -12 192.417 24.4298   2
 -12   1  -3 154.023 15.8630   1
 -12   3   1 168.109 17.8963   1
  -1  -3  12 144.622 18.6438   1
  -1   3 -12 184.979 22.7504   2
  -3  12  -1 176.381 15.3899   2
   3   1 -12 151.457 19.9028   2
  12   1   3 160.073 20.4459   3
  -1  12   3 151.879 15.2835   2
  12  -3   1 146.067 18.7818   3
   1 -12   3 159.703 15.7454   3
   1  12  -3 153.065 15.5638   2
   3  12   1 191.778 16.8425   2
  -3  -1 -12 170.405 21.3690   2
   3  -1  12 189.694 17.7821   1
  12   3  -1 169.731 20.8680   3
  -3   1  12 151.882 20.4753   1
 -12  -1   3 181.820 18.1921   1
  -3 -12  -3 166.071 16.7905   3
  12  -3   3 149.656 20.2433   3
  12   3   3 209.127 20.6831   3
  12  -3  -3 177.335 16.4870   3
  12   3  -3 188.821 17.9157   3
   3  12   3 187.699 17.2836   2
 -12   3   3 161.564 22.5754   1
   3 -12  -3 183.384 17.4888   3
   3 -12   3 200.277 17.6767   3
  -3  -3 -12 170.650 17.9124   2
  -3  -3  12 207.607 19.1925   1
  -3   3 -12 161.077 21.2952   2
  -3   3  12 197.838 20.6099   1
  -3  12  -3 186.558 16.4493   2
   3   3 -12 161.205 21.2861   2
   3   3  12 167.765 16.5175   1
  -3 -12   3 195.364 17.3583   3
 -12  -3  -3 172.718 15.6739   1
 -12  -3   3 204.551 18.5225   1
 -12   3  -3 175.905 17.5774   1
  -3  12   3 202.348 17.2719   2
   3  12  -3 191.337 17.7047   2
   3  -3  12 201.354 18.5906   1
   3  -3 -12 192.798 19.4242   2
   4 -12   0 409.649 29.2595   3
  12   0   4 485.018 32.8107   3
   4   0 -12 462.006 31.5062   2
   0   4  12 459.399 31.3394   1
 -12   0  -4 447.504 30.1649   1
 -12   0   4 433.737 32.8003   1
   0  -4  12 459.037 31.0305   1
   0   4 -12 488.663 34.2315   2
  -4   0  12 447.153 33.9559   1
   0 -12   4 436.547 29.3837   3
   0  12  -4 431.466 29.4298   2
 -12  -4   0 459.501 29.1177   1
 -12   4   0 486.110 33.5190   1
  -4   0 -12 469.388 32.0180   2
  12  -4   0 430.540 30.6455   3
  12   4   0 489.185 34.7994   3
   4   0  12 469.346 31.4325   1
   0  12   4 445.771 29.8912   2
   0 -12  -4 428.495 29.6531   3
   4  12   0 454.405 29.9722   2
  12   0  -4 445.143 28.7184   3
   0  -4 -12 417.789 32.5726   2
  -4  12   0 460.878 28.7524   2
  -4 -12   0 431.513 29.9655   3
  -2   4  12 15.2379 6.52730   1
   4   2  12 18.5784 6.35028   1
 -12   4  -2 23.2838 7.55113   1
  -2  12  -4 26.4978 7.09762   2
   4 -12   2 12.0757 5.38519   3
  12   4   2 22.2817 9.00889   3
  -4   2 -12 20.3126 6.66937   2
 -12   2   4 14.3348 6.58643   1
  12  -2   4 16.9178 6.46318   3
  12   2  -4 14.1982 5.27978   3
  -4 -12  -2 12.2220 5.36742   3
  -4  12   2 12.9507 4.54794   2
   2   4 -12 12.1464 6.04011   2
  -4  -2  12 30.5977 8.56868   1
  12  -4  -2 19.8672 6.88437   3
   2  -4  12 15.6951 5.62509   1
   4  12  -2 9.67568 4.80663   2
 -12  -2  -4 9.54946 4.38696   1
   2 -12  -4 20.5473 6.18055   3
   4  -2 -12 22.7273 7.32729   2
  -2 -12   4 19.2054 5.73301   3
  -2  -4 -12 6.75391 3.94681   2
   2  12   4 14.3219 5.56621   2
 -12  -4   2 20.5818 5.85440   1
  12  -2  -4 14.1891 4.87544   3
  12   2   4 13.9144 6.41353   3
   2  -4 -12 28.9040 9.11728   2
   4   2 -12 7.93094 4.78483   2
  -2  12   4 7.04578 4.37738   2
 -12  -2   4 21.3995 6.86044   1
   2 -12   4 22.1328 6.66448   3
  12   4  -2 16.7622 6.99853   3
   4  12   2 18.9083 6.46021   2
  -4 -12   2 23.0385 6.94651   3
  -4  12  -2 14.5066 5.01540   2
 -12   4   2 14.5757 6.55486   1
  12  -4   2 14.2788 6.36011   3
  -2  -4  12 17.5344 5.69611   1
  -2   4 -12 17.8412 6.96329   2
  -4   2  12 10.5977 6.04263   1
  -2 -12  -4 13.2668 5.19700   3
 -12  -4  -2 10.9274 4.74269   1
 -12   2  -4 11.6056 5.58631   1
   4 -12  -2 27.8131 7.62371   3
   4  -2  12 9.38294 4.20409   1
   2  12  -4 14.5324 5.51031   2
   2   4  12 28.5321 7.47699   1
  -4  -2 -12 11.1219 5.06430   2
  -4   4 -12 8.32102 4.02200   2
  -4 -12  -4 22.1415 6.91799   3
 -12   4   4 30.8480 9.95157   1
 -12  -4   4 9.42022 4.48989   1
 -12   4  -4 10.4437 4.28074   1
  12   4   4 2.75644 4.86825   3
  -4   4  12 17.7652 7.22532   1
  -4  12  -4 0.73758 2.35889   2
  -4  12   4 18.2942 5.46197   2
   4 -12  -4 9.76984 4.60530   3
   4  12   4 5.26366 3.96629   2
   4 -12   4 15.5514 5.74520   3
   4  -4 -12 8.50914 4.91400   2
   4  -4  12 17.2684 6.24565   1
   4   4 -12 19.5335 7.57161   2
   4   4  12 5.27606 3.47146   1
  -4 -12   4 6.29020 3.56584   3
 -12  -4  -4 24.4663 6.22555   1
  -4  -4 -12 26.7213 7.68234   2
  -4  -4  12 9.73931 4.53907   1
   4  12  -4 20.7849 6.45298   2
  12   4  -4 33.6514 8.45765   3
  12  -4  -4 12.0164 4.59783   3
  12  -4   4 23.7705 8.31584   3
  12  -5  -1 30.0240 8.34080   3
 -12  -1  -5 54.5486 10.2524   1
  -1   5  12 34.7717 8.86989   1
   5   1  12 43.8694 9.45304   1
   1  -5  12 63.5528 11.6915   1
  -5 -12  -1 58.8558 11.5762   3
   5  -1 -12 58.5241 12.0112   2
  12  -1   5 69.6880 13.3539   3
  -5  -1  12 28.3578 9.07789   1
  -5   1 -12 42.2967 9.64028   2
   1 -12  -5 56.0831 10.8604   3
 -12   1   5 44.5183 10.9138   1
  -1 -12   5 47.7204 9.08102   3
   1  12   5 32.4554 8.44661   2
   1   5 -12 62.7730 13.3489   2
 -12   5  -1 45.2801 10.4350   1
   5  12  -1 55.3603 10.8906   2
  12   1  -5 55.1320 9.77125   3
 -12  -5   1 67.7319 13.4632   3
 -12  -5   1 58.0633 11.0311   1
  -1  12  -5 50.2661 10.3719   2
   5 -12   1 50.2732 10.5091   3
  -5  12   1 57.0264 10.5209   2
  -1  -5 -12 47.2469 11.0098   2
  -5   1  12 39.6099 11.6472   1
 -12  -1   5 62.0967 12.2895   1
  -1  -5  12 48.7822 10.0588   1
  -1 -12  -5 51.8834 10.4776   3
  12  -1  -5 48.0406 8.84968   3
 -12   1  -5 44.6641 9.79165   1
  12   1   5 39.9708 10.8402   3
 -12   5   1 53.7139 12.0139   1
  -5  -1 -12 56.3225 10.7587   2
   1 -12   5 60.8985 10.6000   3
   5  -1  12 57.0828 11.1929   1
  12  -5   1 33.2992 9.53920   3
   1   5  12 47.7146 9.79483   1
   5   1 -12 51.0284 10.7557   2
 -12  -5  -1 58.7856 12.3812   3
  -5 -12   1 49.6455 10.3736   3
   5  12   1 50.3770 10.2061   2
   1  12  -5 53.7498 11.0151   2
  -1   5 -12 61.8778 13.1730   2
   1  -5 -12 45.8673 11.3269   2
   5 -12  -1 49.7245 10.4246   3
  -1  12   5 43.1155 9.47684   2
  -5  -3  12 -2.1998 2.41426   1
  -3  -5 -12 1.93669 2.61375   2
  -5 -12  -3 0.96360 2.17010   3
  -5   3 -12 1.25910 2.56024   2
   3 -12  -5 -5.3306 1.76844   3
 -12  -3  -5 -0.0374 1.67381   1
   5   3  12 2.19259 1.90299   1
  12  -5  -3 2.34610 3.10880   3
 -12   3   5 0.45043 3.17249   1
   5 -12   3 -0.2042 3.58552   3
 -12  -5   3 4.24456 2.22200   1
 -12   5  -3 3.26514 3.26318   1
  12  -3   5 1.94871 3.66994   3
   3   5 -12 3.12560 4.09481   2
  -3  12  -5 -4.4435 2.61939   2
   5  12  -3 1.27892 3.03647   2
   3  12   5 3.84640 2.96937   2
   5  -3 -12 2.70026 3.05591   2
  12   3  -5 1.37062 2.06124   3
  -3   5  12 2.98999 3.85897   1
  -5  12   3 -0.8831 2.03513   2
   3  -5  12 -0.1660 1.55552   1
  -3 -12   5 5.39226 2.85050   3
 -12   5   3 4.08550 4.52427   1
   5  -3  12 -0.4066 1.89113   1
   5   3 -12 3.93889 3.53001   2
 -12  -3   5 5.76700 2.77145   1
  -5   3  12 5.53056 5.64945   1
  12  -3  -5 1.48688 2.13257   3
  -5 -12   3 1.01249 2.17696   3
  -3  12   5 -3.3280 1.78144   2
 -12   3  -5 -0.7709 1.77260   1
  -5  -3 -12 4.70224 3.51681   2
   3  12  -5 -4.3015 2.25274   2
   3   5  12 0.71302 1.99642   1
   5 -12  -3 4.62037 3.59971   3
  -3 -12  -5 3.02605 2.85040   3
  12  -5   3 7.15396 5.03117   3
  -3  -5  12 1.19177 1.98422   1
  -3   5 -12 -0.1174 2.65120   2
  12   3   5 -2.9201 2.41562   3
  12   5  -3 -1.6878 2.83119   3
   3  -5 -12 1.04526 3.43224   2
   5  12   3 2.55645 3.78093   2
   3 -12   5 0.09394 2.03245   3
 -12  -5  -3 1.37780 2.92132   3
  -5 -12  -5 47.1205 10.1338   3
 -12   5  -5 55.0875 11.2998   1
 -12   5   5 55.8558 13.3474   1
  -5  12   5 35.9319 8.46741   2
 -12  -5   5 42.9888 8.68613   1
   5 -12   5 45.6646 9.53031   3
  12   5   5 57.3171 13.6515   3
   5  12   5 46.4372 10.7641   2
  12  -5  -5 38.0289 8.47643   3
  12  -5   5 37.5961 10.1756   3
  12   5  -5 49.8100 10.9758   3
   5  -5 -12 59.1162 12.3300   2
   5  -5  12 48.6319 10.0184   1
   5   5 -12 31.5138 9.23878   2
   5   5  12 53.5452 10.2953   1
   5 -12  -5 55.9299 11.1616   3
  -5   5  12 55.7273 12.8079   1
  -5   5 -12 54.3109 11.4723   2
  -5 -12   5 44.2550 9.08746   3
  -5  -5 -12 44.8794 9.65958   2
  -5  -5  12 52.7253 11.5108   1
   5  12  -5 58.4362 11.7506   2
   0 -12   6 19.4521 5.17290   3
   0   6  12 21.2910 6.24696   1
   6 -12   0 20.1267 6.82827   3
   6  12   0 8.62628 5.00926   2
  12  -6   0 9.79077 5.67389   3
 -12   0   6 21.6212 7.52552   1
  -6 -12   0 15.0882 6.52783   3
  12   0   6 26.5639 8.39213   3
   6   0 -12 11.7218 5.08080   2
  12   0  -6 18.8552 5.05001   3
 -12  -6   0 30.7539 9.89426   3
 -12   6   0 18.1543 6.28115   1
  -6   0 -12 21.5949 6.16450   2
  -6   0  12 14.7962 6.74243   1
   0 -12  -6 7.51360 3.76303   3
   0   6 -12 29.9186 9.10800   2
   6   0  12 21.8836 6.43847   1
   0  12  -6 12.8940 5.78617   2
   0  -6  12 23.0823 6.01102   1
 -12   0  -6 8.87084 4.40960   1
   0  12   6 8.05183 3.89326   2
   0  -6 -12 21.1771 7.98094   2
 -12  -2  -6 143.398 14.1606   1
 -12   6  -2 116.053 16.8480   1
  12  -2   6 125.232 18.7779   3
  12  -6  -2 78.9159 13.9788   3
  -2  -6 -12 117.854 17.8314   2
  -6   2 -12 103.678 14.8756   2
 -12  -6   2 101.160 16.7634   3
   2  12   6 104.478 16.3085   2
  -2 -12   6 109.099 14.2016   3
   2  -6  12 132.222 13.7365   1
  -2   6  12 133.161 19.8242   1
  -2  12  -6 94.7721 15.0001   2
   2 -12  -6 104.156 15.5177   3
   6 -12   2 127.121 17.2108   3
   6  12  -2 118.914 15.9324   2
   6   2  12 124.093 16.7066   1
   2   6 -12 114.396 18.1583   2
   6  -2 -12 85.5220 14.0431   2
  12   2  -6 123.689 12.2616   3
  -6 -12  -2 102.969 15.5428   3
  -6  -2  12 99.3178 18.1408   1
 -12   2   6 127.068 19.2693   1
 -12  -2   6 108.614 16.5464   1
  -6 -12   2 118.253 16.2337   3
 -12   2  -6 99.5700 15.2451   1
  -2  12   6 104.039 15.6767   2
  -6   2  12 127.215 20.4621   1
  12  -6   2 100.500 16.4138   3
   6   2 -12 138.209 18.2854   2
  -2  -6  12 108.127 15.3107   1
   6  12   2 119.522 16.0324   2
   2  12  -6 151.909 19.2585   2
  -2 -12  -6 116.651 16.2119   3
   2   6  12 106.232 14.9714   1
   6  -2  12 100.415 15.0215   1
  -2   6 -12 113.167 18.2616   2
  12  -2  -6 98.0693 13.1689   3
 -12   6   2 140.116 20.3567   1
   6 -12  -2 92.6468 14.9551   3
  12   2   6 99.5314 17.1838   3
 -12  -6  -2 92.4088 16.7656   3
   2  -6 -12 89.8995 17.1634   2
   2 -12   6 134.222 13.3757   3
  -6  -2 -12 128.681 16.6058   2
 -12   4   6 48.2059 11.9892   1
   4 -12  -6 52.7624 10.5106   3
   4  -6  12 54.9671 10.5489   1
 -12  -4  -6 39.8499 8.21315   1
   6  -4 -12 43.8651 9.60741   2
   4   6 -12 37.3793 10.2458   2
  12  -4   6 52.8081 11.4512   3
  -4   6  12 40.5497 9.56109   1
   4  12   6 33.3430 9.13117   2
   6  12  -4 57.6142 11.5453   2
   6   4  12 32.3368 7.74423   1
  12  -6  -4 50.7114 10.0692   3
 -12   6  -4 52.5290 10.9785   1
   6 -12   4 33.1688 8.38035   3
 -12  -6   4 39.3052 9.38116   3
  -6  -4  12 40.4193 11.0183   1
  -4  -6 -12 44.1083 10.6218   2
  -4 -12   6 23.5275 6.56587   3
  12   4  -6 36.2604 8.26218   3
  -4  12  -6 37.4535 8.01036   2
  -6 -12  -4 57.6005 11.3594   3
   4   6  12 42.9965 8.69186   1
   4  12  -6 53.2542 11.7367   2
   4  -6 -12 27.0866 8.65341   2
  -4   6 -12 46.3742 10.8248   2
   6   4 -12 35.4685 9.80028   2
  -4  12   6 56.9288 10.8479   2
   6  -4  12 40.8764 9.25507   1
   4 -12   6 40.4663 8.59163   3
  -6 -12   4 30.5546 8.26967   3
  12  -6   4 44.9323 10.7994   3
 -12   6   4 51.7221 12.6958   1
  -6  -4 -12 34.9338 7.88642   2
   6  12   4 39.9084 9.55097   2
  -6   4  12 56.0699 12.9852   1
  -4 -12  -6 36.4814 9.19395   3
  12  -4  -6 34.9171 7.67515   3
  12   4   6 32.9006 9.91989   3
 -12  -4   6 34.8387 7.70712   1
 -12   4  -6 33.7689 9.31697   1
   6 -12  -4 40.0438 9.65562   3
  -4  -6  12 54.2395 10.2390   1
 -12  -6  -4 38.7515 10.4238   3
  -6  -6 -12 29.9725 6.87457   2
  -6 -12   6 26.9847 6.87754   3
   6   6 -12 31.4580 9.87019   2
   6  12  -6 24.9496 9.95448   2
   6  12   6 30.7924 8.48155   2
  12  -6  -6 21.0372 5.83281   3
  12  -6   6 14.8330 5.80589   3
   6  -6  12 21.0216 6.23326   1
 -12   6  -6 37.0468 9.42263   1
  -6   6  12 22.9854 7.15496   1
  -6  -6  12 20.3505 7.64939   1
   6  -6 -12 17.4197 7.10281   2
   6 -12   6 25.7818 6.83313   3
 -12   6   6 14.9013 6.82773   1
   6 -12  -6 34.9759 8.93203   3
  12   6  -6 21.5958 7.51385   3
  12   6   6 39.2139 11.9163   3
  -6 -12  -6 19.3815 6.37332   3
   7  -1 -12 4.60654 4.19281   2
  -1   7  12 7.55647 4.70581   1
  -7  -1  12 12.0264 5.71023   1
  -7 -12  -1 17.4060 6.72146   3
  -1 -12   7 10.1539 3.46952   3
  -1  12  -7 33.0083 8.74561   2
   1  -7  12 16.5764 4.31095   1
  -1  -7 -12 22.7612 8.54115   2
   1 -12  -7 6.23416 3.81233   3
 -12  -1  -7 12.2206 4.93903   1
   1  12   7 5.83187 3.82299   2
   7   1  12 12.5524 4.48389   1
 -12   1   7 17.6348 7.04850   1
  12  -7  -1 8.74278 4.96527   3
 -12   7  -1 5.94460 4.91870   1
   1   7 -12 25.0993 7.72843   2
   7 -12   1 3.87603 3.42619   3
  12  -1   7 10.7603 5.87236   3
 -12  -7   1 12.9117 6.72386   3
   7  12  -1 15.8608 5.74021   2
  -1  -7  12 8.40132 2.92137   1
 -12   7   1 10.8891 5.71734   1
   1   7  12 10.0956 3.82203   1
   7 -12  -1 11.9457 5.39944   3
  -7 -12   1 13.1715 5.80310   3
   1  -7 -12 6.14048 5.40190   2
   7  12   1 6.20299 4.54626   2
  -7   1  12 24.2964 8.51864   1
  -1  12   7 13.0507 5.62450   2
  -1   7 -12 19.2368 7.74814   2
   7  -1  12 20.2051 6.49087   1
   7   1 -12 11.5879 5.16677   2
 -12  -7  -1 9.99007 6.88929   3
   1  12  -7 9.85271 4.94159   2
  -1 -12  -7 14.9713 5.46696   3
  12   1   7 11.2263 6.03475   3
  -7  -1 -12 12.3447 3.99248   2
  12  -7   1 12.9592 6.11255   3
   1 -12   7 15.9169 4.74803   3
 -12  -1   7 4.61818 3.67998   1
 -12   1  -7 19.9319 6.61202   1
 -12  -7   3 378.730 29.9738   3
  -3  12  -7 394.012 28.8096   2
   7  -3 -12 362.125 26.7795   2
   3 -12  -7 347.383 26.7341   3
  12  -7  -3 362.308 27.5123   3
 -12   3   7 407.598 31.7525   1
 -12  -3  -7 385.879 26.7061   1
   3  -7  12 374.089 27.0977   1
   3   7 -12 344.375 29.4637   2
   7 -12   3 373.554 27.9671   3
   7  12  -3 397.431 28.1272   2
  -7 -12  -3 388.680 28.9589   3
  -3  -7 -12 387.861 29.7460   2
  12  -3   7 376.162 28.6005   3
   3  12   7 365.619 28.1504   2
 -12   7  -3 342.398 27.0542   1
  -3   7  12 393.867 30.4322   1
   7   3  12 388.982 27.4056   1
  -3 -12   7 410.631 26.0143   3
  -7  -3  12 359.047 30.6335   1
  -3  12   7 394.730 29.2060   2
   3  -7 -12 365.192 30.4483   2
  12   3   7 351.017 29.0376   3
 -12  -3   7 373.543 28.3246   1
  -3   7 -12 374.983 30.2226   2
   7  -3  12 383.214 28.7121   1
  -7 -12   3 342.290 26.4694   3
   7  12   3 360.820 26.7603   2
  -3  -7  12 378.393 27.7836   1
  -7   3  12 381.868 31.2127   1
  -3 -12  -7 355.750 26.7845   3
   7 -12  -3 391.106 29.5825   3
 -12   3  -7 350.871 27.7831   1
   3 -12   7 356.095 24.9982   3
  12  -7   3 363.001 29.5741   3
 -12  -7  -3 383.368 30.8591   3
   3  12  -7 390.299 29.6856   2
   7   3 -12 333.782 27.3162   2
 -12   7   3 329.049 29.7048   1
  -7  -3 -12 333.199 25.1645   2
  -7 -12  -5 -3.2267 4.31768   3
  12  -7  -5 5.57587 3.12315   3
  -7  -5  12 -4.4313 2.29809   1
   5  -7  12 1.23111 1.85600   1
 -12  -7   5 -3.5311 2.46441   3
 -12   5   7 -0.7554 3.67090   1
  -5  -7 -12 2.20925 2.91254   2
   7 -12   5 4.25378 3.17267   3
   7  12  -5 4.26529 3.76138   2
   7   5  12 0.57685 1.78832   1
   5  12   7 -1.4873 3.58680   2
   7  -5 -12 4.65932 3.55694   2
  12  -5   7 -1.3362 2.70210   3
   5 -12  -7 -2.0752 3.35336   3
   5   7 -12 2.93852 4.44305   2
  -5   7  12 0.85242 2.61003   1
 -12   7  -5 6.32655 4.43038   1
   7  -5  12 1.63193 1.62773   1
  -5  12   7 3.16032 3.15466   2
  12  -7   5 3.13552 2.96645   3
   7 -12  -5 7.74696 3.97216   3
 -12  -5   7 6.33140 2.73474   1
  -7 -12   5 5.90525 3.29977   3
   5 -12   7 -0.2688 2.16486   3
   7  12   5 4.19641 3.68882   2
   7   5 -12 7.90511 4.89009   2
 -12   5  -7 2.30475 3.49295   1
  -5  -7  12 -0.7049 2.49778   1
 -12   7   5 -1.4739 3.27896   1
  -7  -5 -12 1.60835 3.26361   2
 -12  -7  -5 -4.5561 6.46415   3
   5  12  -7 4.94896 4.48987   2
  -5 -12  -7 6.20150 3.52220   3
  -7   5  12 -2.9286 2.54555   1
  12   5   7 -2.5826 3.31836   3
   5  -7 -12 2.98441 3.81052   2
   7 -12  -7 89.6939 14.0768   3
   7  12   7 103.723 16.5738   2
 -12   7  -7 102.974 16.4469   1
  12  -7   7 108.814 16.1441   3
  -7 -12  -7 110.529 16.4641   3
   7  -7  12 98.2518 14.8942   1
   7   7 -12 98.4976 16.8609   2
 -12  -7  -7 130.816 20.1331   3
   7  -7 -12 107.318 16.7241   2
  -7  -7 -12 107.873 15.9230   2
  -7   7  12 101.829 15.6371   1
   7  12  -7 118.286 18.1242   2
   7 -12   7 129.016 16.4841   3
 -12   7   7 104.226 17.3536   1
   8   0 -12 34.5055 8.02758   2
 -12   8   0 27.0176 7.94161   1
  12  -8   0 18.5569 7.55292   3
   0 -12  -8 29.8127 6.84215   3
   0  12   8 34.2591 8.90841   2
   0  -8  12 22.2595 5.76365   1
   8  12   0 31.9695 7.42352   2
  12   0   8 18.3550 6.83779   3
 -12   0  -8 24.9739 7.42641   1
 -12   0   8 31.6699 8.98506   1
 -12  -8   0 20.4437 7.81249   3
   0  -8 -12 37.4220 10.5085   2
   0  12  -8 26.2960 8.30771   2
   8   0  12 26.9113 7.54851   1
  -8 -12   0 27.0688 8.30269   3
   0   8 -12 36.8833 9.65811   2
   8 -12   0 25.3057 8.17022   3
  -8   0  12 23.4409 8.47018   1
 -12  -8   2 23.8416 8.22130   3
  -2  -8 -12 11.8708 5.84524   2
   2  12   8 12.5687 5.59361   2
   8 -12   2 9.92789 4.90685   3
   2  -8  12 15.4687 4.21186   1
   8   2  12 9.90974 3.58589   1
 -12   8  -2 13.6161 5.85835   1
   2   8 -12 3.63229 4.43611   2
 -12   2   8 16.8901 7.44158   1
  -8 -12  -2 7.73946 4.58372   3
   8  12  -2 8.41009 4.93541   2
 -12  -2  -8 7.52035 3.99529   1
  -8  -2  12 11.9954 4.85745   1
   8  -2 -12 9.95365 4.20687   2
  -2  12  -8 23.9000 7.41123   2
  12  -8  -2 8.43440 4.66181   3
  12  -2   8 14.5903 5.22439   3
 -12  -2   8 14.2317 5.98827   1
  -8 -12   2 12.1841 5.38577   3
   8 -12  -2 19.7421 7.42394   3
   8  -2  12 4.92263 2.61727   1
   8   2 -12 13.6814 5.49375   2
   2  12  -8 6.57410 4.91335   2
 -12   8   2 5.52748 4.23891   1
   8  12   2 13.5637 4.77698   2
   2  -8 -12 11.6749 6.28380   2
 -12  -8  -2 17.9663 6.90110   3
  12  -8   2 13.6615 7.14500   3
  -8   2  12 9.55271 5.73547   1
  -2 -12  -8 6.48886 2.96789   3
  -2  12   8 2.48417 3.04272   2
  -2   8 -12 27.4479 8.60420   2
  12   2   8 15.1673 5.49570   3
 -12   2  -8 18.3939 5.70971   1
  -4  -8 -12 230.269 21.7828   2
  -4   8  12 247.042 21.2495   1
  12  -4   8 249.041 21.0447   3
   8 -12   4 220.145 21.0920   3
   8   4  12 240.937 20.4740   1
 -12   8  -4 243.062 21.5277   1
  12  -8  -4 241.378 21.2798   3
   4  12   8 250.604 22.7366   2
   4  -8  12 236.169 19.6653   1
  -8  -4  12 243.431 22.5574   1
 -12   4   8 276.320 25.1447   1
  -8 -12  -4 243.125 22.5468   3
 -12  -4  -8 234.648 19.5237   1
 -12  -8   4 220.384 21.6879   3
   8  12  -4 232.800 20.9992   2
   4   8 -12 206.858 27.0415   2
  -8   4  12 250.447 24.0822   1
 -12   8   4 216.626 22.7402   1
   8   4 -12 245.692 22.2281   2
  -4 -12  -8 272.410 22.4903   3
 -12  -8  -4 270.783 25.1328   3
   8 -12  -4 233.926 22.1671   3
  -8 -12   4 239.077 20.8916   3
  -4   8 -12 270.522 23.9714   2
   8  12   4 234.275 20.5572   2
  12  -8   4 251.562 23.6338   3
   4  12  -8 274.391 24.6433   2
  12   4   8 255.418 23.2977   3
 -12  -4   8 246.569 21.6783   1
 -12   4  -8 215.173 21.4065   1
  -4  12   8 228.755 22.1559   2
   4  -8 -12 290.416 25.0466   2
   6   8 -12 14.5128 7.24745   2
   8  12  -6 13.6586 4.98975   2
  -6   8  12 8.81009 3.94165   1
   6  12   8 15.1893 5.68360   2
 -12  -8   6 25.4467 7.05680   3
 -12   8  -6 23.5612 7.21056   1
 -12   6   8 21.9524 8.86876   1
   8 -12   6 15.8692 5.00747   3
  -8 -12  -6 12.9842 5.62294   3
   6  -8  12 13.1716 2.94061   1
  12  -8  -6 15.9891 4.64611   3
  -8  -6  12 36.3805 7.20419   1
  -6  -8 -12 21.7734 6.60712   2
  12  -6   8 21.5125 6.01734   3
 -12   8   6 18.7173 7.59912   1
   8 -12  -6 21.2223 6.33930   3
  -6 -12  -8 7.61231 4.27749   3
   8   6 -12 14.8821 6.12889   2
  -8   6  12 11.7473 5.25437   1
  12  -8   6 8.39254 5.18987   3
   6  -8 -12 13.2425 6.09768   2
 -12  -8  -6 20.7649 7.96878   3
   8  -6  12 14.2719 4.48514   1
   8  12   6 27.9181 7.68225   2
 -12   6  -8 22.7484 7.87445   1
  12   6   8 27.8524 8.97108   3
  -8 -12   6 17.4261 5.68981   3
  -8  -6 -12 8.45312 2.91453   2
   6  12  -8 22.5738 7.95610   2
  12  -8   8 3.74461 3.16148   3
   8  -8  12 7.57137 2.42580   1
   8  12   8 -0.1940 3.56549   2
 -12   8   8 9.51425 4.27147   1
   8   8  12 0.94820 4.05833   2
 -12  -8  -8 7.65789 3.97252   3
  -8   8  12 13.4699 5.11285   1
  -8 -12  -8 8.47443 3.74339   3
  -9  -1  12 24.7244 9.00239   1
   9   1  12 29.6576 8.78776   1
  12  -9  -1 22.0747 7.73805   3
   1   9 -12 33.0509 9.79873   2
  -1  -9 -12 45.0063 11.6698   2
   9 -12   1 36.8118 10.6159   3
 -12  -1  -9 34.1214 8.73926   1
   1  12   9 36.9329 10.0133   2
 -12   9  -1 26.7313 7.40160   1
 -12   1   9 41.3920 10.1171   1
  -9 -12  -1 18.4980 7.39627   3
   9  12  -1 38.5064 8.75012   2
  -1  12  -9 32.2270 9.14447   2
 -12  -9   1 30.9632 9.78250   3
  -9   1 -12 42.2998 9.88251   1
  -9   1  12 31.3073 9.53999   1
 -12   9   1 20.6339 6.61686   1
 -12   1  -9 34.0277 8.86967   1
  -9 -12   1 45.6778 11.0272   3
 -12  -9  -1 26.1029 9.67464   3
  -1   9 -12 29.6598 8.89444   2
   1  12  -9 42.0677 10.9284   2
   9   1 -12 19.9368 5.87500   2
   1  -9 -12 35.3890 10.6452   2
  12  -9   1 24.0840 9.18414   3
 -12  -1   9 34.8171 9.00452   1
  -1  12   9 21.8415 6.69162   2
   9  12   1 23.3210 6.06560   2
   9 -12  -1 27.8733 8.13319   3
 -12   3   9 29.9451 9.03826   1
  -9 -12  -3 15.7687 6.32172   3
  -9   3 -12 25.7420 7.40772   1
 -12   9  -3 18.1638 5.64348   1
 -12  -3  -9 19.8095 5.37007   1
   3  12   9 20.6058 7.81162   2
   9 -12   3 24.5760 8.15024   3
 -12  -9   3 29.0047 8.61909   3
   9  12  -3 14.1854 5.29985   2
  -3  12  -9 33.1751 9.05594   2
  -3  -9 -12 29.0229 8.59475   2
   3   9 -12 21.5219 7.68864   2
  -9  -3  12 20.6027 6.77791   1
   9   3  12 33.8288 7.61493   1
  12  -9  -3 19.5651 6.58066   3
   3  -9 -12 14.7816 6.46818   2
  12  -9   3 25.1711 8.64082   3
   3  12  -9 17.5908 6.80066   2
 -12  -3   9 15.9881 4.92733   1
 -12   3  -9 20.6451 7.24815   1
   9   3 -12 26.6004 6.77387   2
 -12  -9  -3 18.8892 7.87629   3
 -12   9   3 25.7758 7.20226   1
  -9 -12   3 14.4988 5.76887   3
  -3   9 -12 29.1960 7.78684   2
  -9   3  12 32.4406 9.49774   1
  12   3   9 10.2749 6.41160   3
  -3  12   9 19.3204 6.11815   2
   9 -12  -3 20.4011 7.07685   3
   9  12   3 12.0219 4.55253   2
 -12  -9   5 56.9810 11.9533   3
  12  -9  -5 54.2366 11.1183   3
  -9 -12  -5 61.5747 12.7159   3
   9  12  -5 50.5465 10.4306   2
   5  12   9 34.3171 9.60271   2
  -5  -9 -12 36.6182 9.71273   2
  -9   5 -12 28.6478 8.33775   1
  -9  -5  12 59.1539 11.2108   1
   9 -12   5 39.5654 9.43215   3
 -12   9  -5 43.5570 9.15698   1
 -12   5   9 36.0469 9.79425   1
   5  -9  12 47.1062 7.93016   1
   5   9 -12 33.8590 10.6325   2
   9  12   5 51.3860 9.85224   2
  12  -9   5 55.5932 12.4714   3
  -9   5  12 52.7074 12.0610   1
 -12   5  -9 42.3171 10.1029   1
   5  -9 -12 44.5048 10.9506   2
 -12  -9  -5 53.4513 13.0247   3
  -5  12   9 50.2627 9.11461   2
  -9 -12   5 49.9146 10.1521   3
   9 -12  -5 68.8954 12.3952   3
 -12   9   5 56.4172 11.9141   1
   5  12  -9 58.9917 13.6684   2
   9   5 -12 50.0086 10.3936   2
   9 -12   7 0.22719 3.17933   3
   7  -9  12 4.16787 2.02417   1
  -9 -12  -7 2.58638 3.54852   3
   9   7 -12 -0.2855 3.13739   2
  12  -9   7 5.45586 3.30553   3
   9  12   7 -6.6489 2.85372   2
 -12   9   7 -0.4592 4.62992   1
   7   9  12 8.34834 4.88101   2
 -12  -9  -7 10.9428 3.52901   3
  12 -10   0 36.2867 10.3217   3
  10  12   0 21.0611 5.24753   2
 -12   0 -10 22.6736 6.81475   1
 -12   0  10 24.2533 7.93499   1
   0  10 -12 20.7818 7.43628   2
 -10   0 -12 22.2019 6.60377   1
 -10   0  12 21.9589 8.32769   1
   0  12 -10 12.9208 6.26985   2
   0  12  10 15.1933 6.56985   2
 -12 -10   0 18.8888 8.50569   3
 -12  10   0 24.6000 6.56478   1
  10 -12   0 20.2835 7.27765   3
   0 -10 -12 19.1317 7.48708   2
 -10 -12   0 15.5339 7.23416   3
  10 -12   2 8.53082 5.02853   3
 -12  10  -2 7.92238 3.18004   1
  10  12  -2 6.46728 3.40385   2
 -10   2 -12 -0.3267 3.11908   1
 -12   2  10 9.42596 4.17379   1
 -10  -2  12 2.78709 2.67122   1
   2  10 -12 -2.8097 3.60019   2
  -2 -10 -12 10.4751 6.59918   2
 -10 -12  -2 0.36300 3.32922   3
  -2  12 -10 13.6374 5.42333   2
 -12  -2 -10 5.28111 2.47098   1
 -12 -10   2 6.15138 4.30593   3
   2  12  10 12.7043 6.39900   2
  12 -10  -2 8.19235 4.73289   3
  10   2  12 13.8765 4.65451   1
 -12 -10  -2 8.02568 5.92185   3
  12 -10   2 11.4405 4.58435   3
 -10 -12   2 7.61198 4.86280   3
  10 -12  -2 2.55162 5.03258   3
 -12  10   2 8.41108 3.75073   1
   2 -10 -12 1.65409 4.01092   2
  10  12   2 6.39164 3.40896   2
 -12  -2  10 4.47618 3.00600   1
  -2  10 -12 15.1066 5.02111   2
   2  12 -10 4.60911 5.46137   2
 -10   2  12 16.1368 5.97336   1
 -12   2 -10 8.47118 5.16578   1
  -2  12  10 1.89696 3.44711   2
 -10   4 -12 1.73558 2.16608   1
 -10 -12  -4 2.01498 3.46826   3
   4  12  10 1.14254 3.08985   2
  -4 -10 -12 4.25736 3.49420   2
  12 -10  -4 -3.2018 2.35483   3
   4  10 -12 -4.9293 3.05961   2
 -10  -4  12 0.77998 2.20365   1
  10 -12   4 1.07077 3.24060   3
  10  12  -4 1.96890 2.89339   2
  10   4  12 -4.6383 2.30587   1
 -12 -10   4 4.43518 3.40641   3
 -12   4  10 1.27829 2.91983   1
 -12  10  -4 1.23934 1.94130   1
 -10 -12   4 2.39613 3.32656   3
 -12   4 -10 1.22571 3.74069   1
  12 -10   4 -4.1302 2.60696   3
  10 -12  -4 0.94863 2.85096   3
 -10   4  12 2.69970 3.38844   1
  10  12   4 -2.8954 2.22058   2
   4 -10 -12 1.98426 3.57760   2
  -4  12  10 -3.7014 3.10542   2
 -12 -10  -4 4.82962 4.44815   3
 -12  10   4 7.12701 3.32280   1
   4  12 -10 -1.8029 3.73814   2
 -12  -4  10 0.50932 2.41020   1
  12 -10  -6 2.32742 2.83417   3
  10   6 -12 15.5292 4.72945   2
 -12  10   6 15.3229 5.62584   1
 -12  -1 -11 13.9721 5.28108   1
 -11  -1  12 20.8809 7.79513   1
   1  11 -12 22.0421 8.75715   2
  -1  12 -11 22.5633 6.55689   2
 -12  -1  11 17.9875 5.93722   1
   1  12 -11 23.2110 9.03489   2
  -1  11 -12 14.0028 7.31447   2
 -11  -1 -12 19.3833 5.34027   1
  -1  12  11 16.7910 7.51852   2
 -12  -3 -11 10.1315 3.62772   1
  11   3  12 8.43280 3.06217   1
  11  12  -3 8.97739 3.50240   2
  -3  12 -11 8.92716 3.64173   2
  -3  11 -12 1.14679 3.42997   2
 -13   0  -1 70.3396 12.7526   1
 -13   0   1 43.7589 10.4010   1
  -1 -13   0 63.2822 12.2114   3
  -1  13   0 59.0389 10.6988   2
   0  -1 -13 55.9382 12.8026   2
   0  -1  13 55.1787 11.2473   1
   0   1 -13 54.0856 12.2774   2
   0   1  13 55.8510 11.2978   1
   1 -13   0 70.5803 12.5134   3
   1  13   0 50.3133 10.3303   2
  13   0  -1 78.5334 12.7376   3
  13   0   1 69.0859 12.2295   3
   0  13  -1 67.9692 11.6107   2
   0  13   1 57.9118 11.0420   2
   1   0 -13 63.8135 13.5675   2
   1   0  13 70.3609 12.8824   1
  13  -1   0 74.8720 12.3966   3
  13   1   0 65.3028 12.6052   3
 -13   1   0 68.8510 13.5258   1
  -1   0 -13 72.8834 14.5525   2
  -1   0  13 75.1521 13.4028   1
   0 -13  -1 64.8526 12.0134   3
   0 -13   1 49.7819 10.4843   3
 -13  -1   0 70.1943 12.7422   1
 -13  -2   1 1.38535 1.72392   1
 -13   2  -1 4.36117 3.92411   1
  -1  -2 -13 6.87421 4.41920   2
   1   2 -13 1.23670 3.52838   2
  -2  -1  13 4.42080 2.60934   1
  -2   1 -13 1.42167 2.27627   2
   2 -13   1 7.69893 4.28036   3
   2  13  -1 3.09063 2.75404   2
  -1 -13   2 4.69347 3.16733   3
  -1  13  -2 -3.5466 1.80057   2
   2   1  13 4.47253 3.36292   1
   1 -13  -2 2.32227 2.51048   3
  -2  13   1 1.34597 2.37187   2
   1  -2  13 4.73326 3.34284   1
   1  13   2 0.83351 2.52510   2
   2  -1 -13 3.72982 3.43108   2
  -2 -13  -1 0.82687 2.99456   3
 -13   1   2 3.06588 2.86960   1
  13  -1   2 7.44296 5.08284   3
  13  -2  -1 5.48207 3.36317   3
 -13  -1  -2 4.24292 3.05883   1
  13   1  -2 5.57419 3.38505   3
  13   2   1 -2.9320 2.03669   3
  -1   2  13 8.22399 4.73650   1
  13   2  -1 2.47751 3.00387   3
  13  -1  -2 3.75646 2.50878   3
  -1  13   2 3.39416 2.72593   2
 -13   2   1 6.77379 4.06670   1
   2  -1  13 4.66005 3.54837   1
   2   1 -13 2.09337 4.11917   2
   1   2  13 -1.7941 2.05981   1
   2 -13  -1 -3.0967 1.87430   3
  -2   1  13 10.3638 5.56800   1
  -1 -13  -2 7.41255 4.07459   3
 -13  -2  -1 8.56364 3.41080   1
  -1  -2  13 -2.1038 1.34341   1
  -1   2 -13 7.62609 4.26015   2
  -2  -1 -13 -0.2264 2.68781   2
   1  -2 -13 2.72281 4.18599   2
   1  13  -2 3.17301 2.87330   2
  13  -2   1 1.98527 2.78423   3
 -13  -1   2 2.52770 2.31671   1
 -13   1  -2 2.90769 3.12237   1
  13   1   2 1.09606 3.72465   3
   2  13   1 -0.8153 2.43358   2
  -2 -13   1 1.15536 2.32373   3
  -2  13  -1 2.91033 2.32810   2
   1 -13   2 2.98909 3.57393   3
 -13   0  -3 100.422 14.8611   1
 -13   0   3 69.9597 13.7509   1
  -3 -13   0 64.5451 12.1939   3
  -3  13   0 63.5571 10.8771   2
   0  -3 -13 55.0362 12.9427   2
   0  -3  13 78.5134 13.7065   1
   0   3 -13 82.2885 14.8678   2
   0   3  13 80.7511 13.8479   1
   3 -13   0 60.6491 11.3533   3
   3  13   0 65.5472 11.7039   2
  13   0  -3 71.0331 11.8254   3
   0  13   3 89.7865 13.4053   2
   3   0 -13 65.8454 13.1986   2
   3   0  13 72.1944 13.0281   1
  13  -3   0 74.2804 12.9459   3
   0  13  -3 90.5324 13.6555   2
 -13   3   0 70.1564 14.1508   1
  -3   0 -13 71.7500 13.9231   2
  -3   0  13 54.0665 12.1057   1
   0 -13  -3 65.7433 11.9271   3
   0 -13   3 98.5012 14.8589   3
  13   0   3 64.0779 12.6674   3
 -13  -3   0 77.2438 12.6058   1
  13   3   0 79.7268 13.8545   3
 -13  -2  -3 38.3825 8.57851   1
  -3 -13  -2 37.3349 9.55671   3
  -3   2 -13 36.1828 8.96803   2
 -13   2   3 48.2125 12.0827   1
 -13  -3   2 64.3608 11.9076   1
 -13   3  -2 44.4065 10.2166   1
  13  -3  -2 51.7129 10.3793   3
   2  -3  13 32.8212 8.73587   1
   2   3 -13 47.0963 11.3419   2
  13   3   2 47.0300 11.6423   3
  -2 -13   3 44.3849 10.1893   3
  -2  13  -3 47.7755 9.56557   2
   3   2  13 51.7629 10.6750   1
   2 -13  -3 53.8615 11.2099   3
  -3  -2  13 51.1688 10.8914   1
   3  13  -2 49.4275 10.3328   2
   2  13   3 50.0527 10.3463   2
   3  -2 -13 50.4775 11.9272   2
  13  -2   3 27.4611 8.60124   3
  13   2  -3 26.0271 7.43351   3
  -2  -3 -13 45.9758 11.0199   2
  -2   3  13 35.0507 9.96699   1
   3 -13   2 42.9119 10.1219   3
  -3  13   2 40.7335 8.87716   2
  -2  13   3 37.5911 8.63670   2
 -13   3   2 38.0519 10.4653   1
   2  -3 -13 47.2587 11.5621   2
  -3  -2 -13 44.1184 10.3930   2
 -13   2  -3 43.6650 10.0521   1
  -3 -13   2 64.6496 12.2832   3
  -3  13  -2 47.1997 9.33029   2
 -13  -2   3 42.0494 9.93967   1
   2 -13   3 57.5509 10.9817   3
  -2  -3  13 58.1084 11.8733   1
 -13  -3  -2 34.9293 8.10014   1
  -2   3 -13 68.5900 13.5056   2
   3  13   2 43.9716 9.59530   2
  13  -2  -3 48.2432 9.67975   3
  -2 -13  -3 44.5326 9.92095   3
  -3   2  13 29.3488 9.58576   1
   2   3  13 46.1585 10.1971   1
   3 -13  -2 65.7180 12.1412   3
  13  -3   2 41.4255 10.4753   3
  13   3  -2 24.8460 8.25950   3
   3  -2  13 43.1156 9.61194   1
   3   2 -13 49.8673 11.0344   2
  13   2   3 48.4256 11.2718   3
   2  13  -3 47.0390 9.86628   2
  -1  13  -4 97.3433 14.5177   2
  -4  -1  13 97.8186 17.0508   1
  -1 -13   4 96.5861 14.3603   3
   4  13  -1 102.439 15.4172   2
  -1  -4 -13 95.5714 16.3958   2
   1  13   4 124.350 16.5464   2
   4  -1 -13 114.419 17.2181   2
  13   1  -4 118.343 15.5670   3
  -4  13   1 118.490 15.2534   2
   4   1  13 89.2191 14.6109   1
  13  -4  -1 125.623 17.2053   3
 -13  -4   1 94.6946 14.3999   1
  13  -1   4 87.8187 15.4386   3
   1 -13  -4 111.522 16.3095   3
  13   4   1 114.583 17.7516   3
 -13   1   4 89.2502 16.4316   1
  -4   1 -13 126.789 17.9439   2
   4 -13   1 109.223 15.7568   3
  -1   4  13 112.949 16.9444   1
 -13   4  -1 110.834 17.3028   1
   1  -4  13 100.964 15.4087   1
 -13  -1  -4 106.586 15.1353   1
  -4 -13  -1 82.9171 14.2467   3
   1   4 -13 104.528 17.1756   2
   1   4  13 92.3054 14.4523   1
  -1 -13  -4 109.437 16.3914   3
  13  -4   1 122.697 18.0461   3
   1  -4 -13 100.134 17.2515   2
   4 -13  -1 75.3742 13.4000   3
  -4  -1 -13 92.5577 15.0868   2
   1  13  -4 92.4293 14.3052   2
  -1  -4  13 88.5631 14.7163   1
  -1   4 -13 109.777 18.2304   2
  13   4  -1 102.765 17.2885   3
   4  -1  13 110.527 16.4811   1
 -13  -4  -1 80.9087 12.4149   1
   4   1 -13 98.2356 16.3305   2
  13   1   4 104.658 17.3598   3
   1 -13   4 112.857 15.9175   3
   4  13   1 91.5202 14.8416   2
  13  -1  -4 111.068 14.5830   3
  -1  13   4 98.9937 14.8223   2
 -13   1  -4 84.3792 14.2426   1
  -4 -13   1 92.8241 14.4592   3
  -4  13  -1 109.076 15.1230   2
 -13   4   1 106.620 18.0663   1
  -4   1  13 99.0378 18.6426   1
 -13  -1   4 107.749 17.1146   1
   3 -13  -4 165.681 20.3032   3
   4  13  -3 192.157 18.4730   2
  -3   4  13 174.701 24.0561   1
 -13   4  -3 168.528 17.6838   1
  -4  13   3 144.333 15.2852   2
  -3  -4 -13 167.052 22.0494   2
   3  -4  13 194.998 18.4646   1
   4 -13   3 171.436 17.4039   3
   3  13   4 142.084 19.0689   2
   3   4 -13 203.663 24.3476   2
  -4   3 -13 153.689 20.4928   2
  13  -3   4 204.862 24.4697   3
 -13   3   4 186.630 24.5323   1
  -4 -13  -3 156.119 19.9392   3
  -3  13  -4 154.041 15.6741   2
 -13  -3  -4 166.520 15.7530   1
  13   4   3 167.188 22.8938   3
  -3 -13   4 146.065 18.3353   3
   4   3  13 155.766 16.0703   1
  13  -4  -3 137.493 17.3741   3
 -13  -4   3 130.361 17.5418   1
   4  -3 -13 172.603 22.0733   2
  -4  -3  13 161.415 22.0972   1
  13   3  -4 170.907 16.9381   3
 -13   3  -4 142.672 19.1789   1
 -13  -3   4 137.853 18.8462   1
  -4   3  13 184.721 25.5095   1
  -4  13  -3 154.209 15.6400   2
  -3   4 -13 170.254 22.3778   2
  -4 -13   3 144.809 18.8162   3
  -3  13   4 162.350 19.8195   2
 -13   4   3 165.811 23.5626   1
  13   4  -3 123.773 18.3170   3
  -3  -4  13 179.857 18.1573   1
 -13  -4  -3 159.890 15.0010   1
  -3 -13  -4 173.116 17.2815   3
   4  -3  13 171.560 17.4957   1
   4   3 -13 191.194 19.3395   2
   3 -13   4 168.111 20.1947   3
   3  -4 -13 150.323 20.9983   2
  13  -4   3 170.646 22.0035   3
  -4  -3 -13 135.684 19.0782   2
   3   4  13 134.629 18.3586   1
   3  13  -4 163.132 16.8121   2
   4  13   3 167.595 17.3554   2
  13  -3  -4 157.739 15.3700   3
  13   3   4 153.587 20.9436   3
   4 -13  -3 185.689 21.9980   3
   0   5  13 4.66222 3.90741   1
  13   0   5 0.40476 3.76911   3
  13  -5   0 -0.2632 2.69706   3
 -13   0  -5 1.80519 2.46116   1
   0  -5 -13 9.16387 5.95291   2
 -13   0   5 6.04667 4.52691   1
   0   5 -13 3.62004 4.04012   2
  -5   0  13 0.11929 3.35703   1
   0 -13  -5 6.62527 4.14667   3
   5 -13   0 0.69937 3.18572   3
  -5 -13   0 8.95984 4.87461   3
  13   5   0 6.57439 4.31055   3
   0 -13   5 4.33717 2.59854   3
   0  13  -5 5.95822 4.20132   2
   0  13   5 5.76868 3.90648   2
   5   0 -13 4.57464 4.29063   2
   5   0  13 -3.0606 2.16959   1
  -5   0 -13 12.6750 4.50838   2
  13   0  -5 4.76765 2.43110   3
   5  13   0 1.15504 3.35840   2
   0  -5  13 4.01761 2.56738   1
 -13   5   0 4.04809 3.98271   1
  13   5   2 18.1291 8.18062   3
 -13   5  -2 9.78651 4.97615   1
  13  -2   5 11.6485 6.40936   3
  13   2  -5 13.7852 5.18626   3
   5  -2 -13 10.0857 5.45920   2
   2   5 -13 21.0093 7.28132   2
   5   2  13 19.6869 5.94063   1
  -2  13  -5 11.3626 5.17762   2
   2  -5  13 22.5335 6.77008   1
 -13   2   5 19.9156 7.37601   1
   2  13   5 10.7445 5.21009   2
 -13  -2  -5 12.8718 5.01189   1
  -2 -13   5 6.18485 3.80973   3
  13  -5  -2 8.97975 4.46387   3
   2 -13  -5 10.6239 5.28998   3
  -5 -13  -2 12.2038 5.01439   3
   5  13  -2 18.3069 6.74461   2
  -5  -2  13 13.9481 5.76699   1
  -5   2 -13 8.90538 4.00272   2
  -2  -5 -13 5.72620 4.04963   2
  -2   5  13 19.3682 6.78390   1
   5 -13   2 18.3640 6.67975   3
  -5  -2 -13 22.2022 6.83849   2
  13   5  -2 14.9427 7.07877   3
   5  13   2 10.6161 5.73599   2
   5  -2  13 12.9725 5.23059   1
   5   2 -13 16.2124 6.34433   2
   2   5  13 6.88138 3.71370   1
   2  13  -5 20.5154 7.23233   2
 -13   5   2 12.0222 6.44763   1
  13   2   5 6.38617 4.72461   3
 -13   2  -5 12.0981 5.12859   1
  13  -2  -5 6.73389 3.17946   3
  -2  13   5 19.8567 6.93968   2
  13  -5   2 24.5289 8.85598   3
  -2 -13  -5 7.94649 3.60139   3
 -13  -2   5 16.2667 5.43416   1
  -2  -5  13 12.3110 4.01794   1
  -2   5 -13 23.5477 8.16800   2
   5 -13  -2 9.22207 5.09225   3
   2  -5 -13 8.56748 5.67109   2
  -5   2  13 30.4690 10.9657   1
   2 -13   5 18.8347 5.95787   3
  -5 -13   2 6.35890 4.32506   3
 -13  -4  -5 46.6374 9.06644   1
  13   5   4 58.7379 14.4885   3
   4  -5  13 37.3529 8.84758   1
   4   5 -13 41.0660 10.9406   2
   5   4  13 44.3828 9.63624   1
  13  -5  -4 40.3251 9.03241   3
   4 -13  -5 26.9999 8.03846   3
   5  13  -4 41.6301 10.0119   2
  -4  -5 -13 58.6792 12.3905   2
  -5 -13  -4 39.2015 9.97106   3
  13  -4   5 31.1122 9.25438   3
   5 -13   4 44.2985 9.64843   3
   4  13   5 31.9428 8.93357   2
  -5  -4  13 41.3881 10.9260   1
  -5   4 -13 45.4525 10.4626   2
 -13   4   5 38.8617 11.1560   1
 -13   5  -4 44.1942 10.0141   1
   5  -4 -13 45.9915 10.4773   2
  13   4  -5 54.3212 10.6545   3
  -4   5  13 40.0143 12.0545   1
  -4 -13   5 56.3845 10.8613   3
  13  -4  -5 35.1752 7.41961   3
  -5  -4 -13 45.8261 10.5128   2
  13   4   5 45.2493 11.8032   3
  -4   5 -13 31.6509 8.69484   2
   4 -13   5 28.9682 7.50353   3
  -5   4  13 36.0570 11.5485   1
  13   5  -4 44.6827 11.2531   3
 -13   5   4 40.2238 11.6034   1
 -13  -4   5 52.7316 10.3016   1
 -13   4  -5 38.3865 9.26060   1
   5  -4  13 34.0011 9.07152   1
  -4  -5  13 48.6297 11.5130   1
  -4  13   5 43.2071 9.54039   2
   4   5  13 52.6960 10.1889   1
   4  -5 -13 52.5809 11.9401   2
  -4 -13  -5 31.1291 7.71595   3
   5  13   4 34.3717 8.91512   2
  13  -5   4 34.0616 10.7858   3
  -5 -13   4 26.9327 7.74369   3
   5 -13  -4 42.7100 10.3570   3
   5   4 -13 43.1550 10.8304   2
   4  13  -5 45.2663 10.4039   2
   1 -13  -6 66.8270 12.5972   3
  -6 -13  -1 67.0690 12.8305   3
  -6   1 -13 77.8089 12.8744   2
   1  13   6 59.2045 12.0519   2
   6  13  -1 70.4196 12.5908   2
 -13   1   6 68.2279 14.2980   1
  -1  -6 -13 69.7539 13.9843   2
   6 -13   1 103.323 16.6332   3
   6   1  13 60.0309 11.9987   1
 -13  -1  -6 67.8665 11.9362   1
  13   1  -6 71.8340 11.1970   3
  13  -1   6 87.0460 15.8326   3
 -13   6  -1 72.4573 13.9304   1
  -1 -13   6 56.5083 10.5374   3
  -1  13  -6 79.2280 13.5223   2
  -6  -1  13 65.9638 14.8316   1
  -1   6  13 70.9829 13.6979   1
   1  -6  13 67.8701 12.0174   1
   1   6 -13 72.9343 14.5390   2
   6  -1 -13 50.2213 11.0408   2
  13  -6  -1 60.3670 12.4020   3
   6  13   1 58.0203 11.4418   2
  -1  -6  13 56.5562 11.0369   1
  -1   6 -13 78.5252 14.9361   2
  -1 -13  -6 76.0069 13.0063   3
   1  -6 -13 57.9543 13.9455   2
   6  -1  13 83.6161 14.0516   1
   6   1 -13 75.2167 13.3382   2
   1   6  13 70.2858 12.5935   1
   6 -13  -1 52.8235 11.8104   3
   1 -13   6 60.2809 10.6291   3
  -6 -13   1 78.2580 13.7929   3
  13  -6   1 78.2492 14.3159   3
 -13   6   1 71.0773 14.3215   1
  -1  13   6 87.3614 14.6065   2
 -13  -1   6 76.5576 13.9799   1
 -13   1  -6 66.1586 12.5524   1
  13   1   6 72.1050 14.2613   3
  -6  -1 -13 60.9361 11.5293   2
 -13  -6  -1 87.9362 16.0372   3
  13  -1  -6 55.8351 9.69258   3
  -6   1  13 88.5864 17.7990   1
   1  13  -6 71.2448 12.9537   2
   6  13  -3 9.19950 5.22736   2
   3  -6  13 10.2726 4.31474   1
   6  -3 -13 15.0670 6.29325   2
 -13  -3  -6 7.37989 3.18816   1
   3  13   6 5.95034 4.18089   2
   3 -13  -6 19.0432 5.81099   3
 -13   3   6 2.41812 3.74769   1
  -6 -13  -3 8.75788 5.05942   3
  13   6   3 17.7987 9.44176   3
  -3   6  13 7.44596 6.14608   1
   6   3  13 16.7611 5.02652   1
  -6  -3  13 1.05655 4.04491   1
  -3  -6 -13 11.8919 5.88679   2
  -3 -13   6 11.9067 4.16900   3
  -3  13  -6 13.9227 4.92775   2
   3   6 -13 13.0734 6.16244   2
  13  -6  -3 9.41411 4.87712   3
  13   3  -6 5.61750 2.43954   3
   6 -13   3 8.96959 4.91951   3
  13  -3   6 1.09997 3.37278   3
 -13   6  -3 16.2218 6.23495   1
  -3 -13  -6 7.80601 3.47019   3
  -3   6 -13 11.5206 6.04302   2
  -6   3  13 16.7133 6.35701   1
   6 -13  -3 2.17288 3.52359   3
   3 -13   6 7.99022 3.83661   3
  13   3   6 5.22391 4.27135   3
  -6  -3 -13 15.1017 4.94787   2
  -6 -13   3 14.8211 5.30104   3
   3   6  13 12.0102 4.02333   1
 -13  -3   6 11.3405 4.51374   1
 -13   3  -6 16.5887 6.10454   1
  13  -6   3 5.89740 5.35585   3
  13   6  -3 -5.4291 3.31141   3
 -13   6   3 5.08387 3.90244   1
   3  13  -6 3.90162 4.04746   2
  -3  13   6 5.33404 4.26938   2
   3  -6 -13 2.36025 5.07007   2
   6  13   3 8.57731 4.76873   2
  13  -3  -6 11.5142 4.87824   3
   6   3 -13 10.2326 5.68790   2
  -3  -6  13 10.6770 3.53229   1
   6  -3  13 4.89348 2.79619   1
   5  -6  13 12.3927 4.29303   1
   5   6 -13 12.8245 6.67027   2
  -5  -6 -13 11.5183 5.33223   2
 -13   6  -5 23.7344 7.58193   1
   6  -5 -13 19.3900 7.26336   2
  -6 -13  -5 10.0338 4.36448   3
   6  13  -5 6.59976 4.46394   2
  13   5  -6 12.9755 5.30689   3
   5  13   6 15.0616 5.62955   2
  13   6   5 20.9925 9.52603   3
 -13   5   6 20.4951 7.97006   1
   6 -13   5 21.4097 6.39095   3
   6   5  13 16.8541 5.70130   1
   5 -13  -6 22.2886 8.19476   3
  13  -5   6 12.0918 5.04682   3
  -5 -13   6 10.1494 4.25359   3
  -5   6  13 12.2143 5.67879   1
  -6  -5  13 17.5655 5.40808   1
  13  -6  -5 11.9942 5.60035   3
   6  13   5 18.6785 6.76640   2
 -13   6   5 14.6388 6.47297   1
  13   6  -5 18.3576 6.05442   3
   5  13  -6 8.43006 5.29657   2
   6  -5  13 16.4650 5.47523   1
   5 -13   6 12.8474 4.86067   3
  13  -6   5 18.8488 6.78317   3
   5  -6 -13 18.8182 7.54241   2
   6 -13  -5 23.2681 7.48301   3
 -13   5  -6 16.1482 6.39858   1
  -5  -6  13 18.7026 5.74307   1
  -5   6 -13 27.5243 6.92264   2
   6   5 -13 12.9825 6.67012   2
  -6  -5 -13 10.3831 4.59682   2
  -5 -13  -6 8.29052 3.94545   3
  -6   5  13 13.9679 6.50208   1
  -6 -13   5 24.5940 6.98352   3
  13   5   6 15.4185 7.69239   3
  13  -5  -6 22.4461 5.79964   3
   0  13   7 64.7931 12.6231   2
   0  -7  13 71.2398 11.7656   1
   7   0  13 53.5084 11.2019   1
  13   0   7 45.5298 11.3185   3
 -13   0  -7 37.3916 9.24599   1
   0  -7 -13 55.1823 13.9142   2
 -13  -7   0 72.2247 14.0104   3
   0   7 -13 34.6271 10.0080   2
   0   7  13 70.7133 13.3868   1
   7 -13   0 42.6634 10.7398   3
   7  13   0 55.9500 11.1965   2
 -13   7   0 65.9109 13.4997   1
  -7   0  13 75.5652 15.3020   1
 -13   0   7 48.1315 11.2843   1
  13  -7   0 40.5551 10.8350   3
   7   0 -13 82.3615 14.0828   2
   0 -13  -7 51.9940 10.0870   3
  -7 -13   0 51.0474 11.5037   3
   0 -13   7 46.4547 8.97488   3
   0  13  -7 54.6925 11.6911   2
  13  -7  -2 7.80469 4.22482   3
  -2 -13   7 5.41804 3.26890   3
   7  -2 -13 2.02941 3.43462   2
  -7  -2  13 7.86745 4.43852   1
 -13   7  -2 6.51662 5.05239   1
  -2  13  -7 2.21160 3.48511   2
  -2  -7 -13 7.88454 4.77035   2
  13  -2   7 2.45257 3.65074   3
 -13  -2  -7 2.54924 2.73158   1
 -13   2   7 7.46605 5.73588   1
  -7 -13  -2 0.77624 3.22743   3
   2  13   7 4.02437 3.62765   2
 -13  -7   2 12.1030 6.57899   3
   2 -13  -7 2.08134 2.84804   3
   7  13  -2 7.04965 4.81957   2
   2  -7  13 2.18762 1.84708   1
   2   7 -13 4.03786 4.26017   2
  -2   7  13 0.67248 2.95672   1
   7 -13   2 2.72600 4.14403   3
   7   2 -13 8.15625 4.52572   2
   7 -13  -2 4.82831 3.69436   3
   7  13   2 3.48243 3.57564   2
  -2 -13  -7 6.09412 3.65308   3
  -7  -2 -13 1.66486 2.18097   2
  -7 -13   2 5.30314 3.44749   3
   2  -7 -13 3.78216 5.12836   2
 -13  -7  -2 5.36694 4.88293   3
 -13  -2   7 7.66912 3.71851   1
  -2   7 -13 8.64667 4.40136   2
   7  -2  13 -2.2353 1.85886   1
  13  -7   2 3.89415 5.00060   3
  -7   2  13 7.75841 5.24605   1
  -2  13   7 12.7373 4.93989   2
 -13   2  -7 2.26157 3.71948   1
   2 -13   7 5.77630 3.10221   3
   2  13  -7 0.92584 3.24587   2
  -2  -7  13 1.56119 1.75215   1
 -13   7   2 2.36201 3.61846   1
  13   2   7 4.69047 3.68981   3
  -4  -7 -13 27.0136 7.97777   2
   7  -4 -13 53.5246 10.4633   2
   4 -13  -7 62.3335 11.9265   3
  -4   7  13 76.2201 14.1992   1
   4  13   7 46.1244 10.8165   2
   7   4  13 49.4932 9.58804   1
   4   7 -13 33.9558 10.9418   2
  -7 -13  -4 58.9086 12.2556   3
   7 -13   4 78.0229 14.1112   3
   7  13  -4 40.9030 10.0145   2
 -13   4   7 37.7364 10.8553   1
  -7  -4  13 60.5482 12.8569   1
 -13   7  -4 44.8236 10.4753   1
  13  -7  -4 57.6015 11.1656   3
  13  -4   7 51.4356 11.0951   3
   4  -7  13 52.6595 9.72591   1
  -7   4  13 42.0087 10.5703   1
  13  -7   4 42.8643 11.4108   3
  13   7  -4 41.8015 10.2238   3
   4  -7 -13 43.2155 11.1899   2
  -4  -7  13 34.8773 8.37544   1
   7  13   4 61.6076 12.0248   2
  -4  13   7 51.4619 10.5692   2
 -13   7   4 43.1005 11.2173   1
  -7  -4 -13 46.4455 9.22213   2
   7   4 -13 50.7001 11.1870   2
 -13  -7  -4 63.0259 13.8930   3
 -13  -4   7 51.7136 10.4483   1
   4  13  -7 50.6197 11.5562   2
  -4 -13  -7 44.8132 10.0668   3
   7  -4  13 52.6985 10.9474   1
  -4   7 -13 62.4995 12.1667   2
  13   4   7 72.8723 13.9787   3
   7 -13  -4 48.6477 10.6178   3
 -13   4  -7 58.8194 11.9252   1
   4 -13   7 47.3933 9.15655   3
  -7 -13   4 48.1372 9.85535   3
  -7  -6  13 6.71852 3.56039   1
   6   7 -13 6.45169 4.38863   2
  -6   7  13 -0.7349 2.77971   1
 -13   6   7 -2.8187 2.28844   1
  -7 -13  -6 1.94236 3.17141   3
  13   7   6 -0.0571 4.15185   3
  13  -6   7 2.58068 3.61470   3
   6  -7  13 3.89363 2.08557   1
   7  13  -6 2.05213 3.21056   2
   6  13   7 7.20111 4.09385   2
  -6  -7 -13 -0.4328 2.93602   2
   7  -6 -13 5.30716 4.00826   2
 -13   7  -6 3.50071 3.38288   1
   7 -13   6 1.48604 2.74900   3
   7 -13  -6 4.46778 3.94819   3
  -6 -13  -7 3.08049 3.10503   3
   7   6 -13 -4.0218 2.93613   2
 -13   6  -7 0.98776 3.22891   1
   7  13   6 10.9545 5.53322   2
   6 -13   7 0.69640 2.23558   3
  13   6   7 0.41863 4.30075   3
 -13   7   6 -0.3072 3.81732   1
  -7  -6 -13 4.48256 2.46328   2
   6  13  -7 4.94442 4.71929   2
  -7   6  13 2.53299 3.27855   1
   6  -7 -13 6.31507 5.24633   2
   7  -6  13 4.55337 2.56454   1
  -7 -13   6 6.65549 2.99300   3
  13  -7   6 3.42883 4.13482   3
  -1  -8 -13 110.374 18.4233   2
 -13  -8   1 136.125 20.8560   3
 -13   8  -1 153.787 20.2993   1
 -13  -1  -8 113.302 16.3423   1
   1  -8  13 104.758 14.4579   1
  -8 -13  -1 99.3301 17.2719   3
   1  13   8 118.140 17.7232   2
   8 -13   1 104.478 17.4251   3
  -1  13  -8 140.505 20.1608   2
  -8  -1  13 105.194 17.5931   1
 -13   1   8 92.9724 16.6123   1
   8   1  13 107.641 16.4132   1
   8  -1 -13 99.3671 15.7804   2
   1   8 -13 117.679 18.9343   2
   8  13  -1 103.083 15.0573   2
  13  -8  -1 104.083 16.8347   3
  13  -1   8 82.0394 14.8482   3
  -1   8 -13 119.998 18.9076   2
   8 -13  -1 128.195 20.0915   3
 -13   8   1 113.475 18.3318   1
  -1  13   8 90.6828 15.3627   2
   1  13  -8 100.188 16.5510   2
  13   1   8 122.788 18.8836   3
   1  -8 -13 106.147 18.9067   2
 -13  -1   8 92.0720 16.0257   1
  -8 -13   1 103.805 16.7150   3
   8  -1  13 122.522 18.4131   1
   8   1 -13 104.600 15.8408   2
 -13   1  -8 135.624 18.7670   1
  -1  -8  13 130.958 13.4851   1
   8  13   1 146.621 17.8483   2
  13  -8   1 97.6132 17.5585   3
  -8   1  13 106.171 18.4193   1
  -1 -13  -8 105.484 15.1318   3
 -13  -8  -1 114.578 19.2175   3
  -8 -13  -3 126.213 18.7759   3
   8   3  13 131.105 17.9168   1
  -3  -8 -13 134.160 19.8442   2
  13  -8  -3 111.302 16.6444   3
 -13   8  -3 120.486 17.3752   1
 -13   3   8 132.090 19.7500   1
 -13  -3  -8 115.676 16.2741   1
   8 -13   3 101.948 16.6379   3
   3  13   8 110.168 16.7510   2
  -3  13  -8 92.2559 14.8982   2
   8  -3 -13 105.441 14.6412   2
 -13  -8   3 115.799 18.3962   3
  -8  -3  13 129.957 19.7368   1
   3  -8  13 81.7911 12.2725   1
   3   8 -13 100.006 17.4898   2
  13  -3   8 107.116 16.5233   3
   8  13  -3 109.276 16.0896   2
 -13  -8  -3 129.009 20.7461   3
  -3  13   8 122.218 18.0957   2
   8 -13  -3 136.846 20.2759   3
 -13   8   3 74.7234 14.8369   1
   8   3 -13 102.508 15.4575   2
  -8 -13   3 105.768 16.2803   3
 -13  -3   8 102.144 15.9671   1
  13  -8   3 117.767 19.0833   3
   8  -3  13 131.622 18.4672   1
  -3   8 -13 100.710 17.7187   2
  13   3   8 103.828 16.9990   3
  -3 -13  -8 128.242 16.9870   3
   8  13   3 113.752 16.0796   2
 -13   3  -8 102.585 17.0625   1
   3  13  -8 120.029 19.0484   2
   3  -8 -13 97.4957 17.5917   2
  -8   3  13 123.876 19.3398   1
  -8  -5  13 21.8389 6.98022   1
  13  -8  -5 23.1791 6.17164   3
 -13   8  -5 34.7793 8.53455   1
   5   8 -13 22.7655 7.94475   2
  -5   8  13 37.1900 7.33176   1
   8  13  -5 31.6398 8.85492   2
   5  -8  13 28.7901 6.03550   1
   5  13   8 27.9508 8.29502   2
  -5  -8 -13 21.9474 7.56865   2
   8 -13   5 26.0553 6.74240   3
  13  -5   8 37.2519 7.84799   3
  -8 -13  -5 13.8506 6.15718   3
 -13   5   8 21.9658 6.91845   1
  -5 -13  -8 21.3769 6.13478   3
   8  -5  13 20.3230 6.28562   1
   8   5 -13 36.8433 9.64813   2
   5  13  -8 23.7673 8.44936   2
  13  -8   5 54.5237 12.2068   3
  -8   5  13 8.84826 5.49118   1
 -13   8   5 33.7841 9.13539   1
  -8 -13   5 23.3630 6.53924   3
  13   5   8 18.2366 6.84137   3
 -13   5  -8 25.0505 7.26899   1
 -13  -8  -5 31.5986 8.92318   3
   8 -13  -5 22.9281 7.01498   3
   5  -8 -13 16.3068 7.08691   2
   8  13   5 28.5365 7.23679   2
  13  -7   8 53.5718 11.6275   3
   0  13  -9 20.2999 7.63860   2
   9 -13   0 34.3567 9.60015   3
 -13   0  -9 19.6137 6.65090   1
 -13   0   9 43.8848 11.0051   1
   0  13   9 27.6529 8.04923   2
 -13   9   0 30.9441 8.85558   1
   9   0  13 18.7935 5.87830   1
  13  -9   0 35.0785 10.3255   3
   9  13   0 25.1237 6.98001   2
  -9   0  13 27.5437 8.03512   1
 -13  -9   0 28.2104 9.81973   3
   0  -9 -13 28.5660 9.91655   2
   0   9 -13 39.5761 10.0782   2
  -9 -13   0 30.8936 8.63524   3
 -13  -2  -9 12.9833 4.96750   1
  -9  -2  13 20.5665 7.46933   1
 -13   9  -2 19.3654 6.26460   1
   9 -13   2 17.2465 6.46184   3
   9  13  -2 9.58282 4.46555   2
  -2  -9 -13 4.58298 5.11382   2
 -13  -9   2 30.2715 10.7176   3
   9   2  13 21.4477 6.04756   1
   2   9 -13 7.07802 4.65210   2
  -9 -13  -2 11.2410 5.28879   3
  -2  13  -9 30.1143 7.34512   2
 -13   2   9 8.85553 6.05453   1
   2  13   9 12.0042 5.29818   2
  13  -9  -2 21.8043 7.56059   3
  -9   2  13 22.2487 7.49450   1
   9  13   2 22.0484 6.00143   2
   9  -2  13 9.72780 4.19793   1
   9   2 -13 10.0864 4.20626   2
 -13   2  -9 19.5166 7.26529   1
  -9 -13   2 16.7499 5.81102   3
  13  -9   2 9.73735 5.09943   3
 -13  -2   9 10.5317 4.59508   1
   9 -13  -2 12.3621 6.68373   3
   2  -9 -13 26.2807 9.11715   2
 -13   9   2 4.59981 5.06617   1
 -13  -9  -2 12.1431 6.67455   3
  -2  13   9 15.4816 5.01912   2
  -2   9 -13 13.9155 6.69377   2
   2  13  -9 2.86191 5.16415   2
  13  -9  -4 32.7231 9.42002   3
 -13   9  -4 34.9939 8.85875   1
  -9  -4  13 38.2686 8.41953   1
   9   4  13 23.7356 5.49381   1
   9  13  -4 18.3956 5.98389   2
 -13  -9   4 19.6631 6.72402   3
   9 -13   4 20.6299 6.49113   3
   4  -9  13 31.3457 4.66349   1
 -13  -4   9 44.9192 9.09414   1
   4  -9 -13 29.5142 8.66840   2
  -9 -13   4 22.5555 7.63142   3
   9 -13  -4 27.7076 7.50179   3
  -4  13   9 39.1788 7.70046   2
 -13   9   4 20.8747 7.47133   1
   9  13   4 32.6539 7.84834   2
   9   4 -13 43.7195 9.36005   2
  13  -9   4 24.1844 8.34592   3
 -13  10  -1 15.4140 4.49036   1
  10   1  13 17.9941 5.06862   1
  10  13  -1 9.24490 3.94258   2
 -13  -1 -10 12.4506 3.86306   1
  -1  13 -10 17.2565 4.35720   2
  -1  10 -13 13.4651 7.57978   2
  10  13   1 10.7148 4.78387   2
 -13  10   1 10.4644 4.30184   1
 -13  -3 -10 1.09207 2.48996   1
  10   3  13 13.1805 4.06363   1
 -13  10  -3 14.2038 5.25615   1
  10  13   3 10.3000 4.51433   2
 -13  10   3 -4.1568 3.75027   1
  -3  10 -13 8.64554 5.35448   2
 -14   0   0 511.247 34.8030   1
   0 -14   0 483.352 32.9117   3
   0   0 -14 436.193 34.0094   2
   0   0  14 475.026 33.8734   1
   0  14   0 442.150 30.7782   2
  14   0   0 425.125 31.0284   3
   1   1 -14 42.1726 10.7080   2
   1   1  14 53.4700 11.3251   1
   1  14  -1 22.1735 6.87465   2
   1  14   1 53.1922 10.6415   2
  14  -1  -1 32.8864 8.43194   3
  14  -1   1 33.4293 9.19668   3
  14   1  -1 43.0716 9.75438   3
  14   1   1 47.7871 10.1511   3
  -1  14  -1 49.8028 10.0592   2
  -1  14   1 44.8956 9.72161   2
   1 -14  -1 46.8709 10.6021   3
   1 -14   1 30.6854 8.60619   3
   1  -1 -14 56.5421 12.8247   2
   1  -1  14 33.0476 9.20643   1
  -1 -14   1 48.2371 10.7504   3
  -1  -1 -14 40.5206 10.7694   2
  -1  -1  14 36.5513 9.59593   1
  -1   1 -14 32.8359 9.94276   2
  -1   1  14 29.1067 9.24073   1
 -14  -1   1 37.9252 9.54027   1
 -14   1  -1 46.6842 10.8618   1
 -14   1   1 34.6813 9.82484   1
  -1 -14  -1 54.7757 11.8923   3
 -14  -1  -1 63.2841 11.6973   1
 -14   0  -2 112.872 16.6027   1
  -2 -14   0 117.437 17.0173   3
  -2  14   0 124.570 16.3115   2
   0  -2 -14 120.148 19.4676   2
   2 -14   0 102.520 16.2396   3
   2  14   0 96.7534 15.2107   2
  14   0  -2 97.6207 14.9246   3
 -14  -2   0 92.7788 15.1095   1
 -14   2   0 113.984 18.3742   1
  -2   0 -14 134.551 20.2030   2
  -2   0  14 113.448 17.8043   1
   0 -14  -2 111.635 16.7051   3
   0 -14   2 101.816 16.0614   3
   0  14  -2 107.000 15.3714   2
   0  14   2 99.2260 15.0052   2
   2   0 -14 115.922 18.5018   2
   2   0  14 117.354 17.3407   1
  14  -2   0 133.586 18.1812   3
  14   2   0 127.681 18.1811   3
   0   2  14 153.248 20.1322   1
 -14   0   2 123.216 18.9350   1
   0  -2  14 140.523 19.2592   1
   0   2 -14 119.103 19.3907   2
  14   0   2 121.873 17.2942   3
  -2 -14   2 149.464 19.4337   3
  -2  14   2 113.534 16.3480   2
   2 -14  -2 183.709 18.0837   3
   2 -14   2 164.739 20.5131   3
   2  -2 -14 150.816 21.4798   2
   2  -2  14 159.360 20.5547   1
   2   2 -14 160.684 21.7720   2
   2   2  14 182.214 18.2161   1
   2  14  -2 137.224 18.2186   2
  -2  14  -2 153.987 15.8617   2
 -14  -2  -2 138.190 18.2988   1
 -14  -2   2 127.987 18.7685   1
 -14   2  -2 163.299 20.8994   1
 -14   2   2 137.223 21.2017   1
  -2 -14  -2 137.175 18.9546   3
  14  -2  -2 165.666 16.4606   3
  -2  -2 -14 143.831 20.8181   2
  -2  -2  14 187.885 18.7483   1
  -2   2 -14 169.894 22.6722   2
  -2   2  14 126.981 19.8452   1
  14   2  -2 139.862 18.8896   3
  14   2   2 161.290 21.9430   3
   2  14   2 170.137 16.9857   2
  14  -2   2 139.260 19.5553   3
  -3 -14  -1 9.53274 5.11246   3
  -1  14  -3 17.1426 6.01278   2
  14  -1   3 14.1063 6.27944   3
 -14   1   3 6.20064 4.28852   1
 -14  -1  -3 8.24885 4.40381   1
  -1 -14   3 24.6884 7.23628   3
   3   1  14 18.3841 6.35554   1
  -1   3  14 11.0530 5.61773   1
  -3  -1  14 12.8363 6.74002   1
   1  -3  14 11.5333 4.41401   1
   1   3 -14 7.29084 4.34625   2
   1  14   3 13.7442 5.93458   2
   3  -1 -14 32.3706 9.20021   2
   3 -14   1 13.5569 5.71624   3
   3  14  -1 3.98659 4.09261   2
  -3   1 -14 4.72559 3.57658   2
 -14  -3   1 14.9424 5.56251   1
  -3  14   1 9.94726 4.00930   2
  14   1  -3 9.16458 4.55507   3
  14   3   1 21.6034 6.68265   3
   1 -14  -3 22.3046 6.87405   3
  -1  -3 -14 6.48615 4.45327   2
  14  -3  -1 13.3155 5.31222   3
 -14   3  -1 13.6430 5.86201   1
  14  -1  -3 12.4221 5.03827   3
   3 -14  -1 11.2438 5.05685   3
 -14   3   1 9.55743 5.88811   1
   3  14   1 19.1887 6.63998   2
   3   1 -14 15.3403 6.32250   2
  -1   3 -14 21.5208 7.17146   2
  -3   1  14 4.18399 5.20223   1
   1   3  14 7.89628 4.53696   1
 -14  -1   3 17.7051 6.51928   1
 -14   1  -3 15.0639 5.21220   1
  -1  -3  14 16.5902 6.49783   1
  -3 -14   1 18.5090 6.98408   3
  -3  14  -1 19.3182 6.42394   2
  14  -3   1 12.1712 5.38896   3
  -3  -1 -14 20.1754 7.78225   2
  14   1   3 18.8363 6.91676   3
   1 -14   3 11.4518 4.52570   3
   1  14  -3 17.1644 6.37016   2
  -1 -14  -3 6.91140 5.23512   3
 -14  -3  -1 13.6353 5.18935   1
   3  -1  14 12.4210 5.34141   1
  14   3  -1 14.9368 5.63126   3
  -1  14   3 10.5416 4.76429   2
   1  -3 -14 21.7292 7.78968   2
  -3  -3  14 5.41373 3.65267   1
  -3   3 -14 9.07694 4.97153   2
 -14  -3   3 3.71932 3.27013   1
 -14   3  -3 15.0968 6.83900   1
  -3  -3 -14 20.7688 7.83133   2
  -3 -14  -3 11.8001 5.35097   3
   3  -3 -14 11.7159 7.30625   2
   3  -3  14 8.55228 3.82339   1
   3  14   3 15.5567 5.85483   2
  14  -3  -3 8.07033 4.03484   3
  14  -3   3 3.96492 4.37511   3
  14   3  -3 15.7570 6.26680   3
  14   3   3 16.5192 7.23481   3
  -3   3  14 12.5076 6.65882   1
  -3  14  -3 18.3578 5.73685   2
 -14   3   3 9.45707 4.82383   1
 -14  -3  -3 9.76581 3.55979   1
  -3 -14   3 18.5104 6.42906   3
  -3  14   3 8.00686 3.96191   2
   3 -14  -3 10.0933 4.86081   3
   3 -14   3 13.2342 5.54471   3
   3  14  -3 6.27958 4.56114   2
   3   3  14 8.27342 4.86536   1
   3   3 -14 7.25618 5.20419   2
  14   0  -4 27.6998 7.20573   3
  14   4   0 13.9948 6.49246   3
   0 -14   4 16.9654 6.12583   3
   0  14  -4 18.7865 6.55021   2
   0  14   4 19.9537 6.79064   2
   4   0 -14 26.0236 8.63447   2
   4   0  14 30.7105 9.00250   1
  14  -4   0 36.0399 9.11166   3
  -4   0 -14 27.9155 8.40298   2
  -4 -14   0 21.1295 7.35649   3
   0 -14  -4 16.0302 6.36104   3
  -4  14   0 35.3813 7.21655   2
   0  -4 -14 26.0067 8.87547   2
   0  -4  14 25.4210 6.88423   1
   0   4 -14 19.0916 7.79167   2
   0   4  14 30.4596 8.86717   1
   4 -14   0 11.0833 5.65670   3
   4  14   0 26.5862 8.66331   2
 -14   4   0 21.6230 8.40376   1
  14   0   4 26.3704 8.42823   3
  -4   0  14 23.8293 8.45563   1
 -14  -4   0 18.9866 5.11787   1
 -14   0  -4 21.0298 6.88641   1
 -14   0   4 18.7232 7.54886   1
  -4   2 -14 44.0019 10.7348   2
 -14   2   4 55.8803 13.5397   1
  -2  14  -4 64.7911 11.9883   2
 -14   4  -2 68.8883 13.3941   1
   2  14   4 67.2249 12.9239   2
  -4 -14  -2 61.5857 12.4037   3
  -4  -2  14 50.7587 12.6663   1
  -4  14   2 68.7123 12.1196   2
  -2  -4 -14 67.5739 14.4846   2
  14  -4  -2 67.1206 12.4503   3
  -2 -14   4 56.5121 11.4773   3
  -2   4  14 83.0215 15.7452   1
  14   4   2 34.2519 10.8700   3
   2  -4  14 73.2525 13.5632   1
   2   4 -14 80.4598 15.0019   2
   4   2  14 79.9772 14.0089   1
 -14  -2  -4 58.2675 11.1564   1
 -14  -4   2 78.4554 13.0171   1
   4  14  -2 75.3877 13.1617   2
   2 -14  -4 44.2691 10.9136   3
   4 -14   2 87.8234 14.7641   3
  14  -2   4 84.2202 15.5096   3
  14   2  -4 65.6397 12.0427   3
   4  -2 -14 83.3719 15.0406   2
   4  -2  14 75.8865 13.6830   1
  -2   4 -14 72.6214 14.8620   2
   2   4  14 69.1706 12.6147   1
  -2  -4  14 75.5667 14.1005   1
  -4   2  14 70.0566 15.8963   1
  14   4  -2 66.9459 13.6387   3
   2  -4 -14 47.7121 12.7750   2
  -4 -14   2 75.5308 13.6583   3
  -2  14   4 74.8519 12.6356   2
   4  14   2 57.4719 11.8543   2
   2 -14   4 91.3632 14.3151   3
   2  14  -4 77.7623 13.5659   2
  -2 -14  -4 62.6927 12.3638   3
  14   2   4 53.3691 12.7986   3
  14  -2  -4 69.8891 11.0652   3
  -4  -2 -14 73.2286 13.6800   2
   4   2 -14 83.5201 15.4887   2
 -14  -4  -2 69.2178 11.9450   1
 -14  -2   4 45.6000 11.0306   1
 -14   2  -4 49.9680 11.3715   1
 -14   4   2 76.4897 16.2854   1
  14  -4   2 88.8213 15.3462   3
   4 -14  -2 61.3696 12.5467   3
 -14   4  -4 144.039 20.2942   1
 -14  -4   4 116.791 17.1726   1
   4  -4  14 103.396 16.7112   1
   4   4 -14 125.416 19.3680   2
  14   4  -4 133.504 18.2809   3
  14   4   4 127.527 19.6853   3
 -14   4   4 117.439 20.5296   1
  -4 -14  -4 90.4855 14.9990   3
  -4   4  14 111.808 20.5129   1
  -4  14   4 129.142 17.6656   2
   4 -14  -4 127.662 18.6589   3
   4 -14   4 142.488 19.1584   3
  -4   4 -14 108.197 17.8059   2
   4   4  14 150.427 15.5530   1
   4  14  -4 128.331 18.8281   2
   4  14   4 135.513 18.4939   2
  14  -4  -4 134.033 17.2207   3
  14  -4   4 119.761 19.2497   3
   4  -4 -14 176.223 22.1509   2
  -4 -14   4 132.074 17.2737   3
  -4  -4 -14 125.685 18.6348   2
  -4  -4  14 146.993 21.2008   1
   1   5 -14 69.0158 14.7567   2
  -5   1 -14 39.7049 9.67485   2
  14  -5  -1 44.2219 10.4335   3
   5 -14   1 38.6422 9.89064   3
  14  -1   5 47.7581 11.2514   3
  -1  14  -5 50.0747 10.8951   2
  -1  -5 -14 43.4624 11.2750   2
 -14   1   5 47.2342 11.6050   1
  14   1  -5 49.2669 9.77466   3
   5  -1 -14 60.5662 12.9403   2
  -5 -14  -1 47.3587 10.5355   3
  -1 -14   5 42.9407 9.38957   3
   5   1  14 41.2591 10.2964   1
  14   5   1 49.2995 12.3835   3
   1  -5  14 64.1867 11.9895   1
 -14  -1  -5 49.4821 10.7835   1
   5  14  -1 64.2728 12.2288   2
   1  14   5 30.3101 8.57967   2
  -5  -1  14 38.2019 11.5101   1
  -1   5  14 50.6461 11.9571   1
 -14   5  -1 49.9980 11.8907   1
   1 -14  -5 30.2109 8.30639   3
   5 -14  -1 38.2739 9.95008   3
  14  -1  -5 45.0013 9.46698   3
  14   1   5 44.7326 11.4646   3
   1   5  14 57.1921 11.6579   1
   5   1 -14 34.6662 9.36377   2
   5  -1  14 53.9064 11.2585   1
 -14   1  -5 42.2260 10.2555   1
   1  14  -5 51.8411 10.8445   2
 -14  -1   5 41.9158 10.8771   1
  14   5  -1 46.5679 11.5523   3
   1  -5 -14 44.4643 12.1896   2
  -1   5 -14 56.1126 12.8198   2
   1 -14   5 59.8339 11.5306   3
  -1  14   5 58.8921 11.4447   2
  14  -5   1 45.8764 10.7605   3
  -5   1  14 57.5335 15.0899   1
 -14   5   1 45.1539 12.1627   1
  -5 -14   1 46.3105 10.6587   3
   5  14   1 54.9811 11.3642   2
  -1 -14  -5 56.8480 10.9620   3
  -5  -1 -14 48.3425 10.1020   2
  -1  -5  14 57.7661 11.6569   1
  14   5   3 5.23841 6.14565   3
  -5  -3  14 13.8779 6.54552   1
   5   3  14 6.81146 3.85349   1
  -3 -14   5 8.56321 3.71123   3
 -14   3   5 6.29331 4.32646   1
  -5 -14  -3 4.85886 3.34440   3
  -5   3 -14 5.52366 4.37652   2
   3   5 -14 9.49467 5.93573   2
  -3  14  -5 6.10835 3.16780   2
   3 -14  -5 10.6887 5.30756   3
   5 -14   3 3.45673 4.32691   3
   5  14  -3 10.7489 5.79521   2
   3  -5  14 12.0158 3.69629   1
  14  -5  -3 6.67712 3.33358   3
  14  -3   5 10.5756 5.73848   3
  14   3  -5 5.90599 2.38025   3
  -3   5  14 5.72594 5.58938   1
   5  -3 -14 6.28792 3.60042   2
  -3  -5 -14 1.92733 4.19523   2
 -14   5  -3 8.38951 4.63606   1
   3  14   5 10.8952 5.38584   2
 -14  -3  -5 4.24704 3.84584   1
 -14  -3   5 12.2639 4.29190   1
 -14   3  -5 10.1386 4.02040   1
   3 -14   5 5.59410 3.18378   3
  14   5  -3 4.27891 3.89321   3
  -5 -14   3 15.9687 6.05928   3
   5   3 -14 10.7258 5.41130   2
  -5   3  14 3.16522 4.63012   1
   3   5  14 10.5309 4.67770   1
   3  14  -5 10.0631 5.05472   2
  -5  -3 -14 3.34297 3.25670   2
  -3  14   5 -2.6462 2.47011   2
   5 -14  -3 6.59842 3.55400   3
  -3  -5  14 15.0296 5.63122   1
  -3   5 -14 9.14672 4.11123   2
  14   3   5 2.97348 4.96285   3
   3  -5 -14 13.1381 5.75049   2
   5  14   3 9.08260 5.20341   2
   5  -3  14 8.41135 3.87255   1
  14  -3  -5 8.86891 4.49788   3
  -3 -14  -5 12.9526 4.93897   3
 -14   5   3 4.18588 4.28740   1
  14  -5   3 3.12949 4.49598   3
   5   5  14 153.918 15.8426   1
   5 -14  -5 158.242 21.2904   3
   5  14  -5 163.789 21.6394   2
   5  14   5 169.826 21.2872   2
  -5  -5  14 165.154 23.3714   1
  -5   5 -14 167.095 20.9316   2
  -5   5  14 126.531 20.5518   1
  14   5   5 128.775 20.6539   3
   5   5 -14 165.675 23.1290   2
   5  -5  14 142.074 19.3239   1
  14  -5  -5 144.003 14.6772   3
  14  -5   5 126.223 20.2370   3
  14   5  -5 155.803 19.9597   3
 -14   5  -5 169.785 22.1688   1
  -5 -14   5 153.875 15.6575   3
  -5  -5 -14 134.248 19.5030   2
   5  -5 -14 159.250 21.2581   2
   5 -14   5 171.212 17.1459   3
 -14   5   5 147.725 22.6501   1
  -5 -14  -5 149.448 19.7907   3
  14   6   0 -0.9429 3.89628   3
   0   6  14 -2.5333 2.62667   1
   6 -14   0 -0.1757 2.52846   3
   0  -6 -14 -0.1848 3.34666   2
  14   0  -6 -0.8083 1.81077   3
  14   0   6 3.60290 4.17900   3
   0   6 -14 6.60234 4.15061   2
 -14   0   6 4.84639 4.17862   1
  -6 -14   0 -1.1838 2.22512   3
  -6   0  14 2.33610 4.64464   1
   0 -14  -6 6.04041 3.02302   3
   0  14   6 1.99055 3.38754   2
   6   0 -14 1.44528 2.45487   2
   6   0  14 3.15295 2.98980   1
  14  -6   0 -0.2199 2.86259   3
   0  14  -6 0.22875 2.63437   2
  -6   0 -14 -0.2561 2.33759   2
 -14   0  -6 1.90742 3.13334   1
   0 -14   6 -3.5239 1.99734   3
   0  -6  14 0.42900 2.08910   1
   6  14   0 -1.7365 2.74123   2
 -14   6   0 4.84182 4.05919   1
 -14   6  -2 114.424 18.6092   1
  -6  -2  14 111.185 20.4420   1
  -2  14  -6 139.999 19.2145   2
   6  -2 -14 126.205 18.2097   2
   2   6 -14 211.819 26.5487   2
  -2  -6 -14 163.428 23.1131   2
  14   2  -6 168.756 15.6639   3
   6   2  14 134.274 19.2085   1
  -2   6  14 194.710 24.9022   1
  -6 -14  -2 160.364 21.5401   3
  -2 -14   6 137.829 17.9420   3
  14  -2   6 162.159 21.7472   3
 -14  -2  -6 196.341 17.6645   1
   2 -14  -6 126.214 18.3319   3
   6  14  -2 188.944 18.6986   2
   2  14   6 127.787 18.8195   2
   2  -6  14 188.454 18.0274   1
  14   6   2 147.554 24.0608   3
  14  -6  -2 134.413 18.6715   3
   6 -14   2 180.675 22.0138   3
 -14   2   6 157.236 22.7712   1
   2   6  14 135.521 18.6500   1
 -14   2  -6 135.968 19.0855   1
 -14   6   2 161.275 24.0801   1
   6  -2  14 178.323 18.1519   1
   6   2 -14 174.491 22.1364   2
   6 -14  -2 155.041 21.5331   3
  -2   6 -14 170.271 23.7050   2
  14  -6   2 171.089 23.3182   3
  14   6  -2 166.087 23.7358   3
   2  -6 -14 149.031 23.2345   2
  -6  -2 -14 186.978 17.8951   2
  -2  14   6 191.318 19.2029   2
  -6 -14   2 150.530 20.2717   3
   2 -14   6 189.338 17.4067   3
   6  14   2 148.960 19.4240   2
  14  -2  -6 123.734 13.1913   3
  -6   2  14 149.324 22.7806   1
  -2 -14  -6 152.990 19.9533   3
  14   2   6 129.542 19.5709   3
  -2  -6  14 130.744 18.3684   1
   2  14  -6 185.624 18.9740   2
 -14  -2   6 145.683 20.2179   1
   4 -14  -6 20.5208 6.80740   3
   6   4  14 25.7480 7.35413   1
  -4   6  14 7.83732 5.14690   1
  14  -6  -4 19.4807 6.46441   3
  -6  -4  14 17.6847 7.59095   1
  14   6   4 14.7083 7.32217   3
  14  -4   6 9.77992 4.70346   3
  -4 -14   6 11.6808 4.35729   3
   6  14  -4 11.6100 6.04354   2
   6 -14   4 5.57114 3.50023   3
   4  14   6 6.68867 4.83426   2
   6  -4 -14 13.8159 5.32203   2
 -14   4   6 19.6904 7.68364   1
  -6 -14  -4 7.50980 4.55278   3
   4  -6  14 7.48545 3.59137   1
 -14   6  -4 10.5781 5.41274   1
   4   6 -14 12.2045 5.90643   2
  -4  -6 -14 20.1665 6.92711   2
  -4 -14  -6 8.09767 3.84357   3
  -4  14   6 22.0127 5.52449   2
   4  14  -6 21.1246 7.71206   2
  14  -4  -6 5.56652 3.34880   3
  14  -6   4 4.02656 4.13765   3
   6 -14  -4 20.9993 6.50062   3
   4  -6 -14 23.9731 7.33156   2
 -14  -4   6 19.4924 4.98597   1
 -14   4  -6 4.61932 4.39275   1
   6  14   4 20.9908 6.65671   2
 -14   6   4 9.89060 4.68165   1
  -6 -14   4 15.1445 5.56861   3
   4 -14   6 8.01575 3.57208   3
  14   6  -4 10.1268 4.37668   3
   6  -4  14 7.93653 3.78919   1
   6   4 -14 23.4352 6.98887   2
  -4  -6  14 10.3787 4.29833   1
  -6  -4 -14 1.17144 3.63579   2
  14   4   6 12.9140 5.83992   3
  -6   4  14 9.40738 4.49216   1
  -4   6 -14 15.1426 4.67953   2
  14  -6   6 66.0668 13.3805   3
   6 -14   6 56.2814 11.4588   3
  -6 -14  -6 47.4321 10.3973   3
   6  -6 -14 87.1185 13.7582   2
  -6  -6 -14 72.4539 13.0675   2
   6 -14  -6 98.4625 16.0206   3
  14  -6  -6 91.4558 12.9925   3
  -6 -14   6 97.0982 14.6318   3
  14   6   6 76.1854 15.2221   3
  -6  -6  14 76.1265 13.2838   1
  -6   6  14 72.8130 13.7509   1
 -14  -1  -7 6.15508 3.45269   1
   1  -7  14 10.2095 2.52713   1
   7 -14   1 3.53716 3.89878   3
  14   7   1 6.93715 4.94475   3
  -1  14  -7 3.95213 3.43731   2
   7  14  -1 3.08992 2.77334   2
   1 -14  -7 3.94065 2.88093   3
  14  -1   7 5.47211 4.35807   3
   1   7 -14 2.23504 3.77023   2
   7   1  14 2.34747 2.17160   1
 -14   1   7 -1.0702 3.16876   1
   1  14   7 -3.9483 2.36593   2
   7  -1 -14 2.45408 2.73273   2
  -1  -7 -14 0.91256 4.24759   2
  -1   7  14 4.19220 3.81530   1
  14  -7  -1 -1.4858 3.60001   3
  -7  -1  14 -0.8888 3.57868   1
  -7 -14  -1 -0.3807 3.39639   3
 -14   7  -1 3.38048 3.77653   1
 -14   7   1 0.99657 3.28625   1
  -1   7 -14 0.64696 3.23252   2
  -7   1  14 2.69912 3.93227   1
  -1 -14  -7 2.82798 3.23920   3
  14   1   7 2.86084 3.27594   3
  -7 -14   1 3.88365 3.60162   3
   7  -1  14 9.94898 3.82731   1
   7  14   1 10.6194 4.83237   2
  14  -7   1 2.23199 3.74278   3
  14   7  -1 6.31211 6.36175   3
   1  -7 -14 4.13148 4.58601   2
   7   1 -14 0.70670 3.54310   2
 -14  -1   7 -1.7506 2.74554   1
 -14   1  -7 3.24351 2.53995   1
   7 -14  -1 -2.3180 3.29111   3
  -1  -7  14 0.25766 2.21356   1
   1 -14   7 0.88989 2.41405   3
   1  14  -7 3.25620 3.48621   2
  -1  14   7 4.75567 3.82898   2
 -14   7  -3 13.6031 5.41091   1
  14   7   3 8.89137 7.49455   3
 -14  -3  -7 11.1655 4.13583   1
   7  14  -3 27.5044 7.51600   2
  -3  14  -7 23.7706 7.22996   2
   3  -7  14 25.8214 5.63685   1
   3   7 -14 32.0811 9.44901   2
  -3  -7 -14 9.05881 5.32627   2
  -7 -14  -3 17.0817 7.14638   3
  -7  -3  14 15.1854 5.83555   1
  -3   7  14 15.2730 6.88292   1
   7   3  14 2.22754 2.38930   1
   7  -3 -14 14.0331 5.32548   2
   7 -14   3 17.7064 6.33009   3
   3 -14  -7 11.7578 3.52923   3
 -14   3   7 19.6030 6.95549   1
  14  -3   7 17.4318 6.97219   3
   3  14   7 7.67351 4.76566   2
  14  -7  -3 15.7387 5.98960   3
  -7  -3 -14 14.9257 4.29769   2
  14   7  -3 30.0931 7.56966   3
  -7   3  14 13.9495 5.83026   1
  -3 -14  -7 15.1638 4.24504   3
 -14  -3   7 13.5220 4.61491   1
   7  14   3 11.9989 5.34138   2
   3  14  -7 16.5225 6.89722   2
   7  -3  14 21.6515 6.56366   1
  14  -7   3 16.8546 7.02542   3
  -3  14   7 27.3133 7.67714   2
 -14   3  -7 8.23209 5.07902   1
   3 -14   7 16.6928 4.62135   3
   3  -7 -14 14.3865 6.38191   2
  -7 -14   3 9.94754 4.21306   3
   7 -14  -3 14.6854 5.88504   3
  -3  -7  14 -1.1913 3.41895   1
  -3   7 -14 13.9711 5.55806   2
   7   3 -14 11.0617 5.32203   2
  14   3   7 18.3539 6.29511   3
 -14   7   3 9.39258 4.29978   1
  14  -7  -5 5.80545 2.95887   3
  -5   7  14 -1.1099 3.12420   1
   5 -14  -7 -0.6655 2.97754   3
  14  -5   7 7.37538 4.52008   3
   7 -14   5 10.3536 3.48883   3
   5 -14   7 6.70572 3.94807   3
  -7 -14   5 13.3584 4.96893   3
   7 -14  -5 1.83819 2.55679   3
  14   5   7 6.02497 4.59884   3
   7   5 -14 8.19350 4.24282   2
   5  -7 -14 17.3474 5.61044   2
  -5 -14  -7 10.7528 4.48231   3
  -7  -5 -14 18.0105 4.55019   2
  14   7  -5 1.41720 2.95091   3
   8 -14   0 36.5404 9.82902   3
 -14   0   8 15.7654 6.06058   1
  -8 -14   0 31.0138 8.91645   3
   8  14   0 27.8641 6.95823   2
  14   0   8 13.4957 5.27430   3
   0  14   8 27.6189 9.06770   2
   8   0 -14 38.7117 8.60205   2
   8   0  14 33.3547 8.61320   1
   0  -8 -14 19.6028 8.54584   2
   0  -8  14 27.6549 5.37274   1
   0   8 -14 29.0823 8.72341   2
 -14   0  -8 31.2597 8.21286   1
 -14  -8   0 36.4051 9.22565   3
 -14   8   0 33.0693 8.87579   1
  -8   0  14 26.2857 9.32912   1
   0  14  -8 7.18252 4.47632   2
  14  -8   0 27.2239 8.60519   3
   8   2  14 17.9557 5.94446   1
 -14  -2  -8 6.83581 4.14884   1
 -14  -8   2 16.1912 8.30297   3
  -2  14  -8 34.8147 7.81992   2
   8  14  -2 15.0783 5.99067   2
  -8  -2  14 17.5365 5.73859   1
   8  -2 -14 22.5191 6.42060   2
 -14   8  -2 22.0855 7.99101   1
   2  -8  14 28.5059 5.29905   1
   2   8 -14 13.5026 5.34480   2
  14  -8  -2 16.3208 6.01566   3
   8 -14   2 31.6377 9.48878   3
  14  -2   8 18.6436 5.91492   3
   8  14   2 41.1027 9.24269   2
 -14   2  -8 25.1115 8.85710   1
  14   2   8 8.61373 5.69699   3
   8 -14  -2 20.2175 7.07637   3
  -2  14   8 26.6831 7.92088   2
   2  -8 -14 21.3670 7.48868   2
 -14   8   2 22.3830 7.16607   1
  -8 -14   2 23.1867 7.60333   3
 -14  -2   8 27.9815 6.94306   1
   8   2 -14 32.5531 8.07394   2
   2  14  -8 29.4674 9.66784   2
  -2   8 -14 30.3165 8.19173   2
  14  -4   8 8.58642 6.87981   3
 -14  -4   8 7.21165 5.42888   1
  14   4   8 4.24430 3.94328   3
  -4  14   8 2.41385 3.32016   2
 -15   0  -1 -1.3979 2.45566   1
 -15   0   1 2.78792 3.31136   1
  -1 -15   0 -3.7350 2.04659   3
  -1  15   0 -2.7736 2.25525   2
   0  -1 -15 -0.5045 3.38992   2
   0  -1  15 1.83625 2.72882   1
   0   1 -15 -4.2557 2.68142   2
   0   1  15 -0.9781 3.22676   1
   1 -15   0 4.53645 4.14645   3
   1  15   0 -1.4366 1.89924   2
  15   0  -1 -1.4880 1.89644   3
  15   0   1 8.82566 4.13892   3
  15  -1   0 2.31481 3.25960   3
  15   1   0 0.09608 2.96645   3
  -1   0  15 8.07050 4.05358   1
   0 -15  -1 1.42516 3.20291   3
   0 -15   1 0.52863 3.79818   3
   0  15  -1 -0.7098 2.49465   2
   0  15   1 0.96620 2.48217   2
   1   0 -15 5.12844 3.47474   2
   1   0  15 1.10353 3.37059   1
  -1   0 -15 -6.4340 2.74470   2
 -15  -1   0 -1.2927 2.54035   1
 -15   1   0 3.13724 2.90550   1
   2  15  -1 44.1962 9.82213   2
   1 -15  -2 29.6290 8.40302   3
 -15   1   2 23.6673 8.18860   1
  -2 -15  -1 28.0222 9.40738   3
   1  15   2 39.1702 9.09915   2
   2  -1 -15 33.0347 9.88021   2
  -2  15   1 42.6901 9.41792   2
  -1  -2 -15 25.6177 9.09234   2
   2   1  15 33.6713 9.14424   1
  15  -2  -1 22.8938 6.91894   3
  -1   2  15 47.3917 11.6037   1
   2 -15   1 30.8397 8.60420   3
  15   2   1 25.9436 7.83402   3
  -1 -15   2 26.8316 8.34248   3
  -1  15  -2 28.9829 7.58419   2
  15  -1   2 47.3126 10.4749   3
 -15  -2   1 37.9692 9.34377   1
 -15   2  -1 34.6376 9.24608   1
   1  -2  15 40.9924 10.0315   1
   1   2 -15 39.0400 10.1261   2
  -2  -1  15 34.0047 9.62024   1
  -2   1 -15 28.4986 9.16819   2
 -15  -1  -2 51.0081 10.8698   1
  15   1  -2 37.2394 8.67757   3
 -15  -2  -1 36.9481 9.44040   1
  15   2  -1 35.1375 9.28514   3
 -15  -1   2 40.0387 10.2216   1
  15   1   2 26.5286 8.51988   3
   1 -15   2 34.2474 9.54099   3
   1  15  -2 33.3908 8.63460   2
  -2 -15   1 53.4019 11.2807   3
  -2  15  -1 29.7825 7.71896   2
   2  -1  15 42.5420 10.6261   1
   2   1 -15 51.0372 11.8089   2
  -1  -2  15 38.2985 9.30230   1
  -1   2 -15 27.8619 8.79429   2
  15  -2   1 33.8630 9.39303   3
   1  -2 -15 32.4100 9.91915   2
 -15   2   1 40.7539 11.6027   1
  -2  -1 -15 39.2610 10.6513   2
   1   2  15 37.7695 9.95413   1
   2 -15  -1 31.5085 8.47053   3
  -2   1  15 40.1997 10.5605   1
  -1 -15  -2 34.9842 9.27212   3
   2  15   1 30.1860 8.28857   2
  15  -1  -2 37.9585 8.86719   3
  -1  15   2 26.8198 7.57296   2
 -15   1  -2 44.6539 10.8697   1
 -15   0  -3 0.59336 2.32652   1
   0  -3  15 3.27417 2.17724   1
   0   3 -15 3.19600 4.11634   2
   0   3  15 4.47740 3.46714   1
   3 -15   0 1.31523 3.14315   3
   3  15   0 0.25770 2.46230   2
  15   0  -3 8.26286 3.32124   3
  15   0   3 0.71933 5.01818   3
  15   3   0 5.08929 4.63020   3
  -3 -15   0 0.08649 2.51153   3
  -3  15   0 -0.5567 2.30062   2
   0  -3 -15 4.76824 3.92518   2
  15  -3   0 -2.8788 2.29033   3
 -15  -3   0 -4.6475 2.26956   1
 -15   3   0 -2.6124 3.20141   1
  -3   0 -15 0.76468 3.26453   2
  -3   0  15 3.55653 3.67166   1
   0 -15  -3 -0.5696 6.61593   3
   0 -15   3 5.56720 3.74081   3
   0  15  -3 5.39521 3.92580   2
   0  15   3 4.46050 3.50880   2
   3   0 -15 -1.0532 3.01051   2
   3   0  15 3.71078 4.05187   1
 -15   0   3 4.01871 3.74120   1
  15   2  -3 49.0620 10.6039   3
  -3  -2  15 55.6257 12.0810   1
   2 -15  -3 40.9878 11.0198   3
   3  15  -2 48.4314 10.9816   2
   3 -15   2 48.7777 11.3962   3
  -2  -3 -15 36.1094 10.9265   2
 -15  -3   2 28.7319 7.71104   1
 -15   3  -2 33.1330 9.88320   1
  -2   3  15 64.4802 14.3870   1
   2  -3  15 41.2380 9.26626   1
   2   3 -15 65.4807 13.0267   2
 -15   2   3 40.3684 11.9351   1
  -2  15  -3 34.3411 8.73499   2
   3   2  15 38.8207 9.80903   1
  15  -3  -2 40.9385 9.28836   3
  -3  15   2 44.0132 9.74065   2
  -3 -15  -2 54.4400 11.8774   3
  15   3   2 35.2929 10.0538   3
  -2 -15   3 54.8583 11.9252   3
  15  -2   3 52.1164 11.9003   3
   2  15   3 50.8570 10.8620   2
   3  -2 -15 40.3255 11.4990   2
 -15  -2  -3 47.7024 10.2127   1
  -3   2 -15 54.6465 12.8235   2
 -15  -2   3 28.4136 7.78605   1
 -15   2  -3 38.4221 10.1239   1
  -3   2  15 35.1803 10.3903   1
   3  -2  15 36.7696 9.22436   1
  15   3  -2 42.7047 9.76586   3
  15  -2  -3 46.8640 9.66598   3
   2  15  -3 51.0385 10.9682   2
 -15  -3  -2 32.9328 7.52606   1
  15   2   3 49.6248 11.3502   3
  -2   3 -15 40.9357 10.5880   2
   3   2 -15 40.9020 10.9499   2
  -3  -2 -15 35.3536 10.2154   2
   2 -15   3 53.9163 11.3238   3
   2  -3 -15 39.7787 10.9492   2
  -3  15  -2 48.4998 9.90363   2
  -2 -15  -3 43.2931 10.7412   3
   2   3  15 39.7596 9.41469   1
   3 -15  -2 46.7604 10.9436   3
  -2  15   3 52.1720 10.6817   2
   3  15   2 54.7658 11.5178   2
  -2  -3  15 41.4097 10.0621   1
 -15   3   2 46.9499 12.6669   1
  15  -3   2 43.9861 10.6013   3
  -3 -15   2 39.3283 10.0673   3
 -15   1   4 21.1690 8.20687   1
   1  15   4 18.3467 6.65234   2
   1 -15  -4 21.1955 6.76574   3
   4 -15   1 10.4138 5.30659   3
 -15  -1  -4 13.8986 5.78188   1
  -1 -15   4 22.7044 6.88784   3
  -1  15  -4 21.0864 6.84840   2
  15  -4  -1 26.3413 7.94041   3
   1   4 -15 17.3891 6.74581   2
  -1  -4 -15 12.0222 6.61198   2
  15   1  -4 20.2777 5.90401   3
  -4 -15  -1 13.4218 6.35739   3
 -15   4  -1 14.1134 6.57260   1
   1  -4  15 12.7614 5.02160   1
  15   4   1 17.6361 7.38161   3
  -4  -1  15 23.9971 8.44308   1
  -4   1 -15 30.2737 8.62430   2
   4  -1 -15 24.7453 7.95098   2
   4  15  -1 13.4752 5.68133   2
  -1   4  15 16.2473 5.71843   1
   4   1  15 31.9044 8.25648   1
  15  -1   4 14.3487 6.33322   3
  15  -1  -4 28.1606 7.39397   3
 -15   1  -4 14.1914 5.08244   1
  15   1   4 14.4280 6.25447   3
   1  15  -4 15.6381 5.43142   2
   4  -1  15 14.8386 5.89899   1
  15   4  -1 14.4568 5.50381   3
 -15  -1   4 9.47610 4.78075   1
   1   4  15 19.2456 6.13878   1
   4 -15  -1 18.3118 6.60756   3
  -4   1  15 6.15697 5.45774   1
  -1 -15  -4 6.65347 4.07152   3
  -1  15   4 12.0626 7.32273   2
  15  -4   1 16.1560 6.38699   3
 -15   4   1 14.9573 7.84682   1
  -4  -1 -15 17.6939 6.11364   2
   1  -4 -15 20.1704 8.13377   2
  -1   4 -15 28.3293 8.41534   2
   4   1 -15 13.4207 5.86575   2
   1 -15   4 21.9367 6.96550   3
  -1  -4  15 14.7855 5.73240   1
   4  15   1 24.4263 7.99586   2
  -4 -15   1 19.0008 6.85273   3
   4   3  15 11.6872 4.67283   1
   3 -15  -4 25.6657 8.19586   3
  15  -3   4 29.6825 11.0017   3
  -3   4  15 17.6219 6.85678   1
   4 -15   3 15.3920 5.98231   3
  -4 -15  -3 18.3148 7.79781   3
   3  15   4 19.0076 6.34052   2
  -3  -4 -15 31.0544 8.57840   2
  15   4   3 16.2158 6.68560   3
 -15  -3  -4 18.1896 4.91169   1
  15  -4  -3 17.3121 5.73042   3
   4  15  -3 26.7793 7.89267   2
 -15   3   4 8.38822 6.33224   1
 -15   4  -3 19.7917 7.47396   1
  -3 -15   4 33.9790 9.17108   3
   3  -4  15 23.2711 7.03223   1
  -4  -3  15 9.32809 4.06895   1
  -4   3 -15 18.4712 6.56289   2
   3   4 -15 21.0024 7.89662   2
   4  -3 -15 28.9883 8.29127   2
  15   3  -4 27.7804 7.48970   3
  -3  15  -4 18.9702 4.87939   2
  -3  15   4 25.4267 6.17698   2
   3  15  -4 26.9613 8.43069   2
 -15   4   3 25.5163 9.06107   1
  -3 -15  -4 14.4652 5.53918   3
  -4 -15   3 21.9925 7.26095   3
  15  -3  -4 21.9582 6.11160   3
  -3  -4  15 22.2110 7.35888   1
  -3   4 -15 24.2899 8.19162   2
   3 -15   4 14.2315 5.95906   3
   3  -4 -15 29.3568 9.82397   2
  -4  -3 -15 31.5614 9.66314   2
  -4   3  15 12.4901 7.55294   1
   3   4  15 10.6775 5.65187   1
   4 -15  -3 17.2023 7.16791   3
 -15  -3   4 18.4450 5.89884   1
 -15   3  -4 21.6575 7.59857   1
   4  15   3 25.8046 7.82785   2
  15   4  -3 10.7938 4.81052   3
   4  -3  15 26.0921 7.45695   1
   4   3 -15 19.7114 7.29006   2
  15   3   4 23.5613 7.82186   3
  15  -4   3 20.7785 7.52985   3
  15   5   0 33.6230 10.3485   3
  -5 -15   0 42.9942 10.5932   3
   0  -5 -15 29.9236 10.1996   2
 -15   5   0 11.6773 6.35208   1
  -5   0 -15 21.6185 6.47784   2
  -5   0  15 24.2143 9.13437   1
   0 -15  -5 22.6796 7.28054   3
   0 -15   5 23.1739 7.25960   3
   0  15  -5 33.3212 8.80287   2
   0  15   5 39.1087 9.94209   2
   5   0 -15 15.9716 6.02587   2
   5   0  15 16.7704 6.12753   1
  15  -5   0 30.3964 8.56532   3
  15   0  -5 21.1165 5.53286   3
  15   0   5 23.4013 7.36000   3
 -15   0  -5 23.2303 7.23861   1
 -15   0   5 36.9309 10.0526   1
   0   5  15 14.5478 6.45123   1
   5 -15   0 20.7996 7.34052   3
   5  15   0 30.4691 8.48561   2
   0   5 -15 34.7391 10.2240   2
   0  -5  15 21.6828 5.88427   1
  -5   2 -15 38.1587 8.02827   2
  -5 -15  -2 31.1331 8.71915   3
   2  -5  15 28.4014 6.48739   1
  15  -5  -2 26.4799 8.35144   3
   2 -15  -5 24.0597 7.14548   3
   5 -15   2 24.6940 7.57196   3
  -2 -15   5 31.7981 8.19208   3
  -2   5  15 11.1200 7.00371   1
  15   2  -5 25.2680 5.95665   3
   2  15   5 24.8068 7.73044   2
 -15   5  -2 27.6772 8.59560   1
 -15  -2  -5 26.7325 6.89150   1
   5  15  -2 20.9060 7.84687   2
  15   5   2 23.1406 8.28180   3
 -15   2   5 29.5913 9.42036   1
  -5  -2  15 33.7060 10.7367   1
  -2  -5 -15 32.4512 9.92319   2
   2   5 -15 22.3215 7.95438   2
   5   2  15 30.8927 8.44643   1
  15  -2   5 26.0300 9.14535   3
  -2  15  -5 25.6974 7.35690   2
   5  -2 -15 26.8436 7.60919   2
  -2   5 -15 28.8022 8.87965   2
  -2  15   5 28.0146 7.34040   2
   2  15  -5 17.1908 6.81461   2
  -5   2  15 21.6316 8.32609   1
   2 -15   5 42.9924 9.46525   3
   5  -2  15 36.4284 9.43341   1
   5   2 -15 26.8546 7.84400   2
  -2 -15  -5 27.1304 8.16328   3
   5 -15  -2 33.3771 10.3881   3
  15  -5   2 12.1610 5.71414   3
  15   5  -2 20.7562 7.50401   3
 -15   2  -5 22.4744 7.47847   1
  -5 -15   2 25.7357 7.53241   3
   5  15   2 33.3704 8.49298   2
  -2  -5  15 15.1555 4.75346   1
  15   2   5 30.2076 8.99592   3
 -15  -2   5 32.9336 8.85845   1
   2  -5 -15 27.9202 8.78868   2
  15  -2  -5 23.2045 6.38709   3
   2   5  15 24.4074 6.97348   1
  -5  -2 -15 34.2480 8.14642   2
 -15   5   2 27.6173 8.56270   1
   5   4  15 11.8051 3.51006   1
  -4   5  15 7.80373 4.72570   1
   5  -4 -15 2.09250 3.67634   2
  -4  -5 -15 3.27376 6.36134   2
   4 -15  -5 18.1683 4.25888   3
  -5   4 -15 14.2076 4.42321   2
   5 -15   4 8.09162 4.28435   3
  15  -4   5 23.1553 7.38061   3
  15   4  -5 8.37710 3.76291   3
  -5  -4  15 1.35153 3.61275   1
  15  -5  -4 6.32724 3.64097   3
  -4 -15   5 8.83096 3.93926   3
   5   4 -15 -1.7888 4.13186   2
  -5  -4 -15 3.98714 4.18601   2
   4 -15   5 -0.8963 3.03126   3
  -5   4  15 6.47129 4.65513   1
  -4 -15  -5 11.7136 4.18980   3
  15  -4  -5 9.98829 3.28267   3
   4   5  15 13.1124 4.45766   1
   5 -15  -4 9.49857 5.55808   3
  15  -5   4 1.39679 3.66118   3
  15   5  -4 4.09270 3.68768   3
  -4   5 -15 1.66926 4.08253   2
  -5 -15   4 8.35769 4.03152   3
  15   4   5 8.29901 5.36206   3
  -4  -5  15 8.68784 3.54360   1
   4  -5 -15 11.3548 6.65867   2
 -15   1   6 96.2589 17.1147   1
  -1   6  15 82.7829 15.1604   1
  -1  15  -6 89.9238 15.0113   2
  -1  -6 -15 74.1647 14.7556   2
  15   6   1 99.4276 18.6648   3
   6   1  15 77.2007 14.6213   1
  -6 -15  -1 104.110 16.9158   3
   1  15   6 80.1174 15.0660   2
   1  -6  15 86.6049 14.5455   1
   1   6 -15 83.5219 15.5624   2
  -1 -15   6 74.0805 12.1775   3
 -15   6  -1 103.922 18.1336   1
   6 -15   1 103.813 17.1985   3
   6  15  -1 124.183 17.5262   2
   1 -15  -6 75.0924 13.6472   3
  15  -1   6 94.8083 16.4187   3
  15  -6  -1 102.166 15.7189   3
 -15  -1  -6 72.4523 13.3842   1
  -6  -1  15 66.5060 15.0056   1
   6  -1 -15 102.770 16.7766   2
   6  15   1 73.4147 13.6823   2
   1  15  -6 80.3859 14.5256   2
  15  -6   1 79.8260 15.0531   3
   6 -15  -1 82.2138 15.0435   3
  -1  -6  15 100.791 15.8469   1
   6   1 -15 117.914 17.8649   2
   1  -6 -15 89.1557 16.1669   2
  15   1   6 85.0367 15.0973   3
  -1   6 -15 93.9144 17.3216   2
  -1 -15  -6 111.699 16.5940   3
 -15   1  -6 80.9696 14.1978   1
 -15   6   1 63.1444 14.3408   1
  -6  -1 -15 105.603 16.2336   2
 -15  -1   6 117.875 18.1468   1
   1 -15   6 103.820 15.4050   3
  15   6  -1 110.103 19.1872   3
   1   6  15 88.0594 13.8748   1
  -6 -15   1 66.7611 13.3004   3
  -1  15   6 83.4583 14.3407   2
  -6   1  15 95.1969 17.4736   1
   6  -1  15 107.989 16.8895   1
   6   3  15 23.9884 5.73120   1
   6  -3 -15 29.8531 7.22071   2
   3 -15  -6 35.8937 8.08291   3
  -3   6  15 38.8521 8.79778   1
  -3 -15   6 37.6040 8.05849   3
  15  -3   6 17.7834 6.85129   3
  -3 -15  -6 10.9627 3.83373   3
  -3  15   6 28.7598 7.31154   2
  -3  -6  15 28.1491 4.97887   1
  -3   6 -15 36.8125 9.15456   2
  -6  -3 -15 21.9995 6.14665   2
  15   3   6 36.5039 10.3122   3
  15   6  -3 22.4091 6.07723   3
 -15  -3   6 20.6255 6.70696   1
   3 -15   6 22.2296 6.68075   3
   7   0 -15 16.0756 6.10503   2
   0  -7  15 16.0631 3.98098   1
  15   0   7 25.2820 7.57398   3
   2 -15  -7 28.5924 6.37364   3
  -2   7  15 30.9892 9.01869   1
  -2  15  -7 47.0236 9.63625   2
  -2  -7  15 32.2282 7.31080   1
 -16   0   0 202.142 21.5910   1
   0 -16   0 261.326 23.3158   3
   0   0 -16 217.586 28.4458   2
   0   0  16 227.104 22.6370   1
   0  16   0 199.541 20.0130   2
  16   0   0 246.975 21.8838   3
  16   1  -1 24.8978 7.62407   3
  16   1   1 12.5038 5.84124   3
   1  -1  16 8.72412 3.68161   1
   1   1 -16 15.7435 6.97474   2
   1   1  16 27.5624 7.10747   1
   1  16  -1 6.53072 3.49182   2
   1  16   1 27.3654 7.66327   2
  16  -1  -1 15.7662 6.31774   3
  16  -1   1 28.8856 8.04139   3
  -1  16   1 20.1731 6.17757   2
   1 -16  -1 21.7100 7.10101   3
   1 -16   1 16.5142 6.70563   3
   1  -1 -16 16.6371 7.37018   2
 -16  -1  -1 23.4872 6.85105   1
 -16  -1   1 13.6065 5.20451   1
 -16   1  -1 9.47839 4.61122   1
 -16   1   1 14.9692 6.91185   1
  -1 -16  -1 18.5947 6.83339   3
  -1 -16   1 17.0817 6.25484   3
  -1  -1 -16 26.2335 9.51664   2
  -1  -1  16 8.30147 5.50033   1
  -1   1 -16 21.2736 7.75545   2
  -1   1  16 18.6058 6.21264   1
  -1  16  -1 19.9116 5.64409   2
   2  16   0 91.9634 14.6234   2
  16   0  -2 59.0008 11.8617   3
  16   0   2 57.2198 11.6636   3
  16   2   0 60.8372 12.3935   3
  -2 -16   0 69.2921 13.3154   3
  -2  16   0 57.5191 10.5328   2
   0  -2 -16 62.0041 14.7588   2
   0  -2  16 79.8162 14.8923   1
   0   2 -16 66.8212 14.2615   2
   0   2  16 94.3316 16.4302   1
   2 -16   0 92.4407 15.6696   3
 -16   0  -2 74.4361 13.9833   1
 -16   0   2 48.4898 11.7501   1
  16  -2   0 63.9615 12.6032   3
   0  16  -2 79.3574 13.6804   2
   0  16   2 64.0634 12.2754   2
   2   0 -16 85.9508 15.9642   2
   2   0  16 62.2901 13.2732   1
  -2   0  16 61.3562 13.6721   1
   0 -16  -2 76.6971 14.2561   3
   0 -16   2 73.3609 13.4101   3
  -2   0 -16 79.1346 15.8933   2
 -16   2   0 86.0754 16.5584   1
 -16  -2   0 77.3513 13.8340   1
 -16   2  -2 68.4296 13.8898   1
   2  16  -2 61.7006 11.5163   2
  -2  16   2 74.7096 12.5616   2
   2 -16   2 86.4108 14.8982   3
   2   2  16 69.6772 13.4567   1
  16  -2  -2 42.6991 9.16501   3
  16   2  -2 78.6159 13.2941   3
  -2   2  16 47.4750 11.6036   1
  -2  16  -2 60.9667 11.1201   2
  -2 -16   2 64.9641 13.2554   3
   2  16   2 59.3886 12.9721   2
 -16  -2  -2 72.1915 13.4373   1
 -16  -2   2 42.2850 9.27667   1
  -2   2 -16 69.2100 14.2751   2
 -16   2   2 84.4623 18.0582   1
  -2  -2 -16 80.8548 15.8373   2
 -16  -1  -3 11.6146 6.58987   1
  16   1  -3 2.57205 2.78902   3
 -16   1   3 7.07602 3.51279   1
  -3  16   1 3.54698 3.18852   2
 -16  -3   1 5.85771 2.95666   1
  -1   3  16 6.58648 3.84962   1
  -3   1 -16 15.6725 4.67571   2
  -1 -16   3 6.83303 3.96413   3
  -1  16  -3 9.87754 3.84372   2
   1 -16   3 4.26952 2.96078   3
 -16   1  -3 3.81981 3.56268   1
 -16  -1   3 2.97608 3.71647   1
 -16  -3  -1 4.98489 2.43533   1
  -1   3 -16 7.93759 6.10947   2
  -3  -1 -16 -2.7723 3.14691   2
   1   3  16 9.47905 6.12657   1
  16  -1  -3 11.0009 3.37621   3
   1  16  -3 1.82994 2.26808   2
  -1  16   3 1.84935 2.73767   2
 -16  -3   3 48.7505 9.34767   1
  -3  16   3 35.9914 7.29364   2
  16   0  -4 33.7304 7.49649   3
  -4   0 -16 18.7592 6.43201   2
 -16  -2  -4 43.6124 9.36230   1
  -2  16  -4 36.6064 7.73607   2
   0   0   0    0.00    0.00   0
;
_shelx_hkl_checksum              82051
loop_
_space_group_symop_operation_xyz
'x, y, z'
'-x, -y, z'
'-x, y, -z'
'x, -y, -z'
'z, x, y'
'z, -x, -y'
'-z, -x, y'
'-z, x, -y'
'y, z, x'
'-y, z, -x'
'y, -z, -x'
'-y, -z, x'
'y, x, z'
'-y, -x, z'
'y, -x, -z'
'-y, x, -z'
'x, z, y'
'-x, z, -y'
'-x, -z, y'
'x, -z, -y'
'z, y, x'
'z, -y, -x'
'-z, y, -x'
'-z, -y, x'
'x+1/2, y+1/2, z+1/2'
'-x+1/2, -y+1/2, z+1/2'
'-x+1/2, y+1/2, -z+1/2'
'x+1/2, -y+1/2, -z+1/2'
'z+1/2, x+1/2, y+1/2'
'z+1/2, -x+1/2, -y+1/2'
'-z+1/2, -x+1/2, y+1/2'
'-z+1/2, x+1/2, -y+1/2'
'y+1/2, z+1/2, x+1/2'
'-y+1/2, z+1/2, -x+1/2'
'y+1/2, -z+1/2, -x+1/2'
'-y+1/2, -z+1/2, x+1/2'
'y+1/2, x+1/2, z+1/2'
'-y+1/2, -x+1/2, z+1/2'
'y+1/2, -x+1/2, -z+1/2'
'-y+1/2, x+1/2, -z+1/2'
'x+1/2, z+1/2, y+1/2'
'-x+1/2, z+1/2, -y+1/2'
'-x+1/2, -z+1/2, y+1/2'
'x+1/2, -z+1/2, -y+1/2'
'z+1/2, y+1/2, x+1/2'
'z+1/2, -y+1/2, -x+1/2'
'-z+1/2, y+1/2, -x+1/2'
'-z+1/2, -y+1/2, x+1/2'
loop_
_atom_site_label
_atom_site_type_symbol
_atom_site_fract_x
_atom_site_fract_y
_atom_site_fract_z
_atom_site_U_iso_or_equiv
_atom_site_adp_type
_atom_site_occupancy
_atom_site_site_symmetry_order
_atom_site_calc_flag
_atom_site_refinement_flags_posn
_atom_site_refinement_flags_adp
_atom_site_refinement_flags_occupancy
Ag Ag 0.19557(7) 0.0000 0.0000 0.0377(2) Uani 1 4 d S T P
Ge1 Ge 0.28806(6) 0.28806(6) 0.28806(6) 0.0187(2) Uani 1 6 d S T P
Ge2 Ge 0.2500 0.5000 0.0000 0.01507(18) Uani 1 4 d S T P
P P 0.12835(10) 0.12835(10) 0.36002(15) 0.0149(3) Uani 1 2 d S T P
loop_
_atom_site_aniso_label
_atom_site_aniso_U_11
_atom_site_aniso_U_22
_atom_site_aniso_U_33
_atom_site_aniso_U_23
_atom_site_aniso_U_13
_atom_site_aniso_U_12
Ag 0.0225(3) 0.0453(3) 0.0453(3) -0.0202(5) 0.000 0.000
Ge1 0.0187(2) 0.0187(2) 0.0187(2) -0.0007(2) -0.0007(2) -0.0007(2)
Ge2 0.0164(3) 0.0144(2) 0.0144(2) 0.000 0.000 0.000
P 0.0146(4) 0.0146(4) 0.0153(6) -0.0007(3) -0.0007(3) 0.0018(5)
loop_
_atom_type_symbol
_atom_type_description
_atom_type_scat_dispersion_real
_atom_type_scat_dispersion_imag
_atom_type_scat_source
P P 0.1023 0.0942 'International Tables Vol C Tables 4.2.6.8 and 6.1.1.4'
Ge Ge 0.1547 1.8001 'International Tables Vol C Tables 4.2.6.8 and 6.1.1.4'
Ag Ag -0.8971 1.1015 'International Tables Vol C Tables 4.2.6.8 and 6.1.1.4'
loop_
_geom_angle_atom_site_label_1
_geom_angle_atom_site_label_2
_geom_angle_atom_site_label_3
_geom_angle
_geom_angle_site_symmetry_1
_geom_angle_site_symmetry_3
P Ag P 95.65(7) 5 6
P Ag Ag 147.704(13) 5 6
P Ag Ag 95.98(3) 6 6
P Ag Ag 147.704(13) 5 10
P Ag Ag 95.98(3) 6 10
Ag Ag Ag 60.000(1) 6 10
P Ag Ag 95.98(3) 5 9
P Ag Ag 147.704(13) 6 9
Ag Ag Ag 60.0 6 9
Ag Ag Ag 90.0 10 9
P Ag Ag 95.98(3) 5 5
P Ag Ag 147.704(13) 6 5
Ag Ag Ag 90.0 6 5
Ag Ag Ag 60.0 10 5
Ag Ag Ag 60.0 9 5
P Ag Ge1 87.902(12) 5 26_554
P Ag Ge1 87.902(12) 6 26_554
Ag Ag Ge1 122.534(14) 6 26_554
Ag Ag Ge1 62.567(14) 10 26_554
Ag Ag Ge1 122.534(14) 9 26_554
Ag Ag Ge1 62.567(14) 5 26_554
P Ag Ge1 87.902(12) 5 27_545
P Ag Ge1 87.902(12) 6 27_545
Ag Ag Ge1 62.567(14) 6 27_545
Ag Ag Ge1 122.534(14) 10 27_545
Ag Ag Ge1 62.567(14) 9 27_545
Ag Ag Ge1 122.534(14) 5 27_545
Ge1 Ag Ge1 173.75(3) 26_554 27_545
P Ge1 P 87.43(6) 9 5
P Ge1 P 87.43(6) 9 .
P Ge1 P 87.43(6) 5 .
P Ge1 Ag 159.20(5) 9 30
P Ge1 Ag 107.34(4) 5 30
P Ge1 Ag 107.34(4) . 30
P Ge1 Ag 107.34(4) 9 26
P Ge1 Ag 159.20(5) 5 26
P Ge1 Ag 107.34(4) . 26
Ag Ge1 Ag 54.86(3) 30 26
P Ge1 Ag 107.34(4) 9 34
P Ge1 Ag 107.34(4) 5 34
P Ge1 Ag 159.20(5) . 34
Ag Ge1 Ag 54.86(3) 30 34
Ag Ge1 Ag 54.86(3) 26 34
P Ge2 P 114.72(7) 27 26_554
P Ge2 P 106.91(3) 27 9
P Ge2 P 106.91(3) 26_554 9
P Ge2 P 106.91(3) 27 11_565
P Ge2 P 106.91(3) 26_554 11_565
P Ge2 P 114.72(7) 9 11_565
Ge2 P Ge2 103.22(6) 5 26
Ge2 P Ge1 102.03(5) 5 .
Ge2 P Ge1 102.03(5) 26 .
Ge2 P Ag 113.65(4) 5 9
Ge2 P Ag 113.65(4) 26 9
Ge1 P Ag 120.15(7) . 9
loop_
_geom_bond_atom_site_label_1
_geom_bond_atom_site_label_2
_geom_bond_distance
_geom_bond_site_symmetry_2
Ag P 2.5277(16) 5
Ag P 2.5277(16) 6
Ag Ag 2.8544(12) 6
Ag Ag 2.8544(12) 10
Ag Ag 2.8544(12) 9
Ag Ag 2.8544(12) 5
Ag Ge1 3.0978(12) 26_554
Ag Ge1 3.0978(12) 27_545
Ge1 P 2.4464(17) 9
Ge1 P 2.4464(17) 5
Ge1 P 2.4464(17) .
Ge1 Ag 3.0978(12) 30
Ge1 Ag 3.0978(12) 26
Ge1 Ag 3.0978(12) 34
Ge2 P 2.3276(11) 27
Ge2 P 2.3276(11) 26_554
Ge2 P 2.3276(11) 9
Ge2 P 2.3276(11) 11_565
P Ge2 2.3276(11) 5
P Ge2 2.3276(11) 26
P Ag 2.5277(16) 9
