#------------------------------------------------------------------------------
#$Date: 2019-07-31 07:41:19 +0300 (Wed, 31 Jul 2019) $
#$Revision: 217323 $
#$URL: file:///home/coder/svn-repositories/cod/cif/2/24/30/2243036.cif $
#------------------------------------------------------------------------------
#
# This file is available in the Crystallography Open Database (COD),
# http://www.crystallography.net/. The original data for this entry
# were provided by IUCr Journals, http://journals.iucr.org/.
#
# The file may be used within the scientific community so long as
# proper attribution is given to the journal article from which the
# data were obtained.
#
data_2243036
loop_
_publ_author_name
'Ferrandin, Sarah'
'Slawin, Alexandra M. Z.'
'Harrison, William T. A.'
_publ_section_title
;
 Syntheses and crystal structures of a new family of hybrid perovskites:
 C~5~H~14~N~2~&#x00B7;<i>A</i>Br~3~&#x00B7;0.5H~2~O (<i>A</i> = K, Rb, Cs)
;
_journal_coeditor_code           VN2151
_journal_issue                   8
_journal_name_full               'Acta Crystallographica Section E'
_journal_page_first              1243
_journal_page_last               1248
_journal_paper_doi               10.1107/S2056989019010338
_journal_volume                  75
_journal_year                    2019
_chemical_formula_iupac          '(C5 H14 N2) [Rb Br3], 0.5H2 O'
_chemical_formula_moiety         'C5 H14 N2, Rb Br3, 0.5(H2 O)'
_chemical_formula_sum            'C5 H15 Br3 N2 O0.5 Rb'
_chemical_formula_weight         436.39
_chemical_name_systematic
;
Poly[1-methylpiperizine-1,4-diium [tri-\m-bromido-rubidium] hemihydrate]
;
_space_group_crystal_system      orthorhombic
_space_group_IT_number           38
_space_group_name_Hall           'A 2 -2'
_space_group_name_H-M_alt        'A m m 2'
_symmetry_space_group_name_Hall  'A 2 -2'
_symmetry_space_group_name_H-M   'A m m 2'
_atom_sites_solution_hydrogens   mixed
_atom_sites_solution_primary     direct
_audit_creation_method           SHELXL-2014/7
_cell_angle_alpha                90
_cell_angle_beta                 90
_cell_angle_gamma                90
_cell_formula_units_Z            4
_cell_length_a                   13.477(3)
_cell_length_b                   9.5617(19)
_cell_length_c                   9.850(2)
_cell_measurement_reflns_used    2309
_cell_measurement_temperature    93(2)
_cell_measurement_theta_max      27.4
_cell_measurement_theta_min      3.0
_cell_volume                     1269.3(5)
_computing_cell_refinement
;
CrysalisPro (Rigaku, 2017)
;
_computing_data_collection
;
CrysalisPro (Rigaku, 2017)
;
_computing_data_reduction
;
CrysalisPro (Rigaku, 2017)
;
_computing_molecular_graphics
;
ORTEP-3 for Windows (Farrugia, 2012)
;
_computing_publication_material
;
publCIF (Westrip, 2010)
;
_computing_structure_refinement
;
<i>SHELXL2014/7</i> (Sheldrick, 2015)
;
_computing_structure_solution
;
SHELXS-7 (Sheldrick, 2008)
;
_diffrn_ambient_temperature      93(2)
_diffrn_measured_fraction_theta_full 0.999
_diffrn_measured_fraction_theta_max 0.999
_diffrn_measurement_device_type  'Rigaku Pilatus 200K CCD'
_diffrn_measurement_method       \w
_diffrn_radiation_type           MoK\a
_diffrn_radiation_wavelength     0.71073
_diffrn_reflns_av_R_equivalents  0.0374
_diffrn_reflns_av_unetI/netI     0.0264
_diffrn_reflns_limit_h_max       16
_diffrn_reflns_limit_h_min       -16
_diffrn_reflns_limit_k_max       11
_diffrn_reflns_limit_k_min       -11
_diffrn_reflns_limit_l_max       11
_diffrn_reflns_limit_l_min       -11
_diffrn_reflns_number            6851
_diffrn_reflns_theta_full        25.242
_diffrn_reflns_theta_max         25.337
_diffrn_reflns_theta_min         2.969
_exptl_absorpt_coefficient_mu    13.306
_exptl_absorpt_correction_T_max  1.000
_exptl_absorpt_correction_T_min  0.347
_exptl_absorpt_correction_type   multi-scan
_exptl_absorpt_process_details
;
(CrysalisPro; Rigaku, 2017)
;
_exptl_crystal_colour            colourless
_exptl_crystal_density_diffrn    2.284
_exptl_crystal_description       prism
_exptl_crystal_F_000             820
_exptl_crystal_size_max          0.150
_exptl_crystal_size_mid          0.100
_exptl_crystal_size_min          0.100
_refine_diff_density_max         0.269
_refine_diff_density_min         -0.354
_refine_ls_abs_structure_details
;
Parsons <i>et al.</i> (2013)
;
_refine_ls_abs_structure_Flack   -0.001(13)
_refine_ls_extinction_coef       0.00327(14)
_refine_ls_extinction_expression Fc^*^=kFc[1+0.001xFc^2^\l^3^/sin(2\q)]^-1/4^
_refine_ls_extinction_method
;
SHELXL-2014/7 (Sheldrick 2015)
;
_refine_ls_goodness_of_fit_ref   1.010
_refine_ls_hydrogen_treatment    constr
_refine_ls_matrix_type           full
_refine_ls_number_parameters     69
_refine_ls_number_reflns         1264
_refine_ls_number_restraints     1
_refine_ls_restrained_S_all      1.010
_refine_ls_R_factor_all          0.0132
_refine_ls_R_factor_gt           0.0128
_refine_ls_shift/su_max          0.000
_refine_ls_shift/su_mean         0.000
_refine_ls_structure_factor_coef Fsqd
_refine_ls_weighting_details
'w=1/[\s^2^(Fo^2^)+(0.0076P)^2^] where P=(Fo^2^+2Fc^2^)/3'
_refine_ls_weighting_scheme      calc
_refine_ls_wR_factor_gt          0.0276
_refine_ls_wR_factor_ref         0.0276
_reflns_number_gt                1244
_reflns_number_total             1264
_reflns_threshold_expression     'I > 2\s(I)'
_cod_data_source_file            vn2151sup1.cif
_cod_data_source_block           II
_cod_database_code               2243036
_shelx_space_group_comment
;
The symmetry employed for this shelxl refinement is uniquely defined
by the following loop, which should always be used as a source of
symmetry information in preference to the above space-group names.
They are only intended as comments.
;
_shelx_estimated_absorpt_t_min   0.240
_shelx_estimated_absorpt_t_max   0.350
_shelx_hkl_file
;
   0   0  -210278.97  386.28   1 0.00007 0.07682 0.87815 0.83873-0.47837-0.53909
   0   0  -210865.77  400.30   1 0.00005 0.07701-0.79386-0.83328 0.60808 0.54745
   0   0  -211107.46  388.81   1-0.31812-0.24147 0.62286 0.58323-0.71472-0.77558
   0   0  -3  242.76   57.72   1 0.00007 0.11519 0.89597 0.83684-0.44411-0.53518
   0   0  -3  220.63   54.26   1 0.00005 0.11549-0.76974-0.82886 0.63835 0.54740
   0   0  -3  200.80   68.35   1-0.30221-0.18722 0.66907 0.60963-0.67896-0.77025
   0   0   3  216.88   66.87   1-0.37886-0.49385 0.36322 0.42266-0.85119-0.75990
   0   0  -481890.42 1809.16   1 0.00007 0.15357 0.91263 0.83383-0.40876-0.53022
   0   0  -488383.27 1929.55   1 0.00005 0.15396-0.74433-0.82315 0.66781 0.54654
   0   0  -5  833.50   93.64   1 0.00008 0.19194 0.92789 0.82938-0.37284-0.52466
   0   0   5  810.15   87.04   1 0.00004-0.19180 0.71844 0.81702-0.69558-0.54375
   0   0   5  793.63   95.54   1 0.00008-0.19231-0.92772-0.82919 0.37325 0.52483
   0   0  -5  819.06   84.70   1 0.00004 0.19244-0.71762-0.81615 0.69642 0.54484
   0   0  -5  824.56  106.92   1-0.29875-0.10618-0.86115-0.95977 0.41129 0.25990
   0   0  -5  852.99   83.16   1-0.26641-0.07476 0.75549 0.65642-0.59853-0.75067
   0   0   5  846.22   83.30   1-0.39417-0.58581 0.24573 0.34481-0.88557-0.73343
   0   0  -622255.08  869.55   1 0.00008 0.23032 0.94183 0.82362-0.33606-0.51825
   0   0   623959.09  630.28   1 0.00004-0.23018 0.69054 0.80883-0.72329-0.54110
   0   0   622326.65  610.69   1 0.00008-0.23063-0.94170-0.82327 0.33644 0.51867
   0   0  -622884.12  610.84   1 0.00004 0.23091-0.68960-0.80783 0.72418 0.54228
   0   0  -622048.30  658.73   1-0.31261-0.08153-0.84678-0.96514 0.43037 0.24870
   0   0  -624015.84  628.37   1-0.24640-0.01642 0.79550 0.67662-0.55358-0.73614
   0   0   623769.77  633.01   1-0.39971-0.62968 0.18379 0.30268-0.89802-0.71545
   0   0  -7  223.48   64.86   1 0.00008 0.26870 0.95443 0.81652-0.29841-0.51096
   0   0   7  173.98   55.86   1 0.00004-0.26855 0.66128 0.79930-0.75013-0.53758
   0   0   7  173.68   66.66   1 0.00008-0.26909-0.95434-0.81617 0.29871 0.51132
   0   0  -7  163.62   54.44   1 0.00004 0.26939-0.66022-0.79816 0.75107 0.53885
   0   0  -7  150.70   79.59   1-0.32629-0.05669-0.83171-0.96978 0.44920 0.23726
   0   0  -7  192.61   54.03   1-0.22455 0.04396 0.83370 0.69517-0.50449-0.71749
   0   0  -858629.55 1876.40   1 0.00008 0.30707 0.96564 0.80803-0.25986-0.50277
   0   0   861709.13 1975.19   1 0.00003-0.30693 0.63064 0.78837-0.77606-0.53315
   0   0   855602.67 1689.53   1 0.00008-0.30754-0.96558-0.80767 0.26008 0.50306
   0   0  -859525.14 1841.36   1 0.00003 0.30786-0.62944-0.78709 0.77704 0.53450
   0   0  -855508.06 1845.75   1-0.33975-0.03167-0.81595-0.97374 0.46773 0.22542
   0   0  -861306.88 1906.18   1-0.20128 0.10558 0.86889 0.71057-0.45222-0.69564
   0   0  -9  286.42   75.60   1 0.00009 0.34545 0.97541 0.79809-0.22037-0.49365
   0   0   9  307.70   70.36   1 0.00003-0.34530 0.59856 0.77601-0.80107-0.52779
   0   0   9  271.52   80.06   1 0.00009-0.34599-0.97538-0.79773 0.22050 0.49386
   0   0  -9  327.78   67.49   1 0.00003 0.34634-0.59722-0.77457 0.80207 0.52922
   0   0  -9  271.02  102.85   1-0.35307-0.00648-0.79941-0.97692 0.48607 0.21347
   0   0  -9  254.42   78.44   1 0.08644 0.43194 0.98912 0.81225-0.11900-0.39201
   0   0  -9  305.60   66.51   1-0.17617 0.16906 0.90128 0.72317-0.39579-0.66965
   0   0 -1011215.84  496.61   1 0.00009 0.38383 0.98368 0.78666-0.17991-0.48356
   0   0  1011255.36  449.13   1 0.00002-0.38368 0.56498 0.76214-0.82509-0.52145
   0   0  1010959.42  478.52   1 0.00009-0.38444-0.98367-0.78628 0.17995 0.48368
   0   0 -1011355.65  465.04   1 0.00002 0.38481-0.56348-0.76054 0.82612 0.52295
   0   0 -1010583.20  478.38   1-0.36621 0.01888-0.78211-0.97935 0.50416 0.20127
   0   0 -11  225.45   78.59   1 0.00009 0.42269 0.99048 0.77395-0.13764-0.47150
   0   0  11  112.06   60.53   1 0.00002-0.42205 0.52982 0.74670-0.84810-0.51409
   0   0  11  118.05   72.34   1 0.00009-0.42289-0.99037-0.77325 0.13837 0.47248
   0   0 -11  111.16   57.22   1 0.00002 0.42328-0.52816-0.74493 0.84913 0.51565
   0   0 -11  115.34   88.53   1-0.37915 0.04445-0.76404-0.98100 0.52198 0.18880
   0   0  1238022.99 1299.33   1 0.00002-0.46043 0.49300 0.72960-0.87002-0.50565
   0   0  1237396.48  891.50   1 0.00009-0.46134-0.99541-0.75854 0.09570 0.46018
   0   0 -1238332.08 1325.11   1 0.00002 0.46176-0.49116-0.72763 0.87106 0.50726
   0   0 -1235069.41  910.49   1-0.39190 0.07021-0.74518-0.98187 0.53953 0.17606
   0   0  13  292.22   71.61   1 0.00001-0.49880 0.45440 0.71071-0.89079-0.49605
   0   0  13  279.48   85.83   1 0.00009-0.49949-0.99861-0.74155 0.05270 0.44788
   0   0 -13  261.46  125.05   1-0.40446 0.09617-0.72551-0.98191 0.55681 0.16305
   0   0  14 6095.48  209.44   1 0.00001-0.53718 0.41389 0.68992-0.91032-0.48522
   0   0 -14 5672.63  250.57   1-0.41680 0.12233-0.70499-0.98112 0.57380 0.14976
   0   0  15  292.74   83.19   1 0.00000-0.57556 0.37131 0.66705-0.92850-0.47304
   0   0 -15  274.06  114.27   1-0.42893 0.14871-0.68360-0.97945 0.59050 0.13617
   0   0 -1616943.46  639.70   1-0.44084 0.17532-0.66131-0.97688 0.60689 0.12227
   0   2   012829.20  439.04   1-0.00000 0.07806-0.26039-0.14092 0.96550 0.98693
   0   2   011694.81  500.14   1-0.58107-0.50308 0.14974 0.26931 0.79995 0.82120
   0   2   012668.95  431.73   1-0.38536-0.30685 0.31925 0.43865-0.86577-0.84464
   0   2  -1 6829.14  276.85   1 0.00002 0.11655-0.02625 0.07368 0.99965 0.99044
   0  -2  -1 6379.42  257.78   1 0.00001-0.03987 0.42153 0.28233-0.90680-0.95848
   0   2   1 6658.08  271.38   1-0.00000 0.03988 0.27229 0.41149-0.96221-0.91053
   0   2   1 6653.12  267.98   1 0.00001 0.03960-0.42196-0.28278 0.90661 0.95836
   0  -2  -1 6495.74  268.89   1-0.00000-0.03960-0.27288-0.41206 0.96204 0.91029
   0   2   1 6189.30  316.87   1-0.57398-0.53434-0.21476-0.07549 0.79020 0.84188
   0  -2  -1 5362.53  302.55   1-0.58703-0.62662-0.04761-0.18684 0.80816 0.75658
   0   2  -1 6089.90  308.56   1-0.49952-0.38315 0.52684 0.62677 0.68768 0.67848
   0  -2  -1 6647.60  265.51   1-0.35588-0.39606 0.48381 0.34459-0.79954-0.85111
   0   2   1 6731.91  272.76   1-0.38195-0.34177 0.34311 0.48233-0.85812-0.80656
   0   2  -1 6859.80  273.81   1-0.39269-0.27585 0.25963 0.35922-0.88225-0.89154
   0   2  -211844.45  421.05   1 0.00005 0.15507 0.27505 0.35529 0.96142 0.92180
   0  -2   210985.53  451.03   1 0.00008-0.15495 0.59701 0.51690 0.80222 0.84190
   0  -2  -212050.60  412.35   1 0.00002-0.00148 0.53635 0.37743-0.84399-0.92603
   0   2   211741.99  410.94   1 0.00000 0.00152 0.37742 0.53633-0.92604-0.84400
   0   2   211520.42  403.42   1 0.00002 0.00114-0.53653-0.37764 0.84387 0.92594
   0  -2  -212533.20  434.97   1 0.00000-0.00111-0.37764-0.53652 0.92595 0.84388
   0   2   211049.50  459.08   1-0.51987-0.51870-0.46635-0.30737 0.71570 0.79779
   0  -2  -212125.18  495.32   1-0.56169-0.56289-0.29415-0.45310 0.77328 0.69126
   0   2  -211147.24  436.39   1-0.37316-0.21843 0.77254 0.85288 0.51373 0.47421
   0  -2  -213211.69  444.91   1-0.34980-0.35165 0.50991 0.35088-0.78588-0.86788
   0  -2   213114.35  443.36   1-0.35377-0.50894 0.49306 0.41328-0.79481-0.75509
   0   2   212124.01  419.42   1-0.38156-0.37971 0.34574 0.50478-0.85724-0.77525
   0   2  -311612.79  418.98   1 0.00008 0.19357 0.57167 0.63207 0.82047 0.75033
   0  -2   312003.41  454.13   1 0.00010-0.19332 0.89547 0.83510 0.44511 0.51499
   0  -2  -313202.73  443.96   1 0.00003 0.03689 0.62146 0.44283-0.78343-0.89584
   0   2   311644.91  418.53   1 0.00001-0.03684 0.43738 0.61601-0.89927-0.78687
   0   2  -311650.89  430.55   1 0.00010 0.19378-0.89727-0.83717-0.44147-0.51145
   0   2   312012.38  419.32   1 0.00003-0.03732-0.62153-0.44294 0.78338 0.89577
   0  -2  -313451.17  470.65   1 0.00001 0.03737-0.43734-0.61593 0.89929 0.78690
   0   2   311407.52  469.07   1-0.45980-0.49711-0.62279-0.44409 0.63301 0.74542
   0  -2  -313458.81  527.76   1-0.52805-0.49075-0.43894-0.61764 0.72696 0.61455
   0   2  -311084.67  424.18   1-0.26624-0.07311 0.89150 0.95217 0.36652 0.29667
   0  -2   314095.58  471.76   1-0.33087-0.52436 0.58131 0.52135-0.74336-0.67321
   0   2  -412067.79  471.30   1 0.00009 0.23194 0.76951 0.81017 0.63862 0.53834
   0  -2   412432.54  473.14   1 0.00010-0.23178 0.99670 0.95576 0.08105 0.18108
   0  -2  -411149.00  394.94   1 0.00004 0.07527 0.68752 0.48917-0.72616-0.86893
   0  -2   412471.32  456.18   1 0.00009-0.23203-0.77175-0.81201-0.63592-0.53552
   0   2  -411495.13  426.30   1 0.00010 0.23223-0.99719-0.95678-0.07483-0.17504
   0  -2  -412223.40  445.79   1 0.00001 0.07585-0.47014-0.66843 0.88259 0.73988
   0   2   411685.94  472.45   1-0.40629-0.48225-0.72254-0.52413 0.55933 0.70193
   0  -2  -412506.89  497.88   1-0.50105-0.42527-0.52261-0.72102 0.68979 0.54705
   0   2  -411517.02  430.74   1-0.19326 0.03824 0.94438 0.98540 0.26606 0.16587
   0  -2   412804.68  438.19   1-0.21730-0.44920 0.84524 0.80492-0.48820-0.38770
   0  -2  -412711.61  430.26   1-0.33228-0.25747 0.57644 0.37777-0.74652-0.88937
   0   2  -5 6378.91  256.91   1 0.00010 0.27038 0.87353 0.89447 0.48676 0.35609
   0  -2   5 5922.66  254.05   1 0.00009-0.27001 0.98217 0.96113-0.18797-0.05745
   0  -2  -5 5560.70  218.28   1 0.00005 0.11365 0.74074 0.52267-0.67178-0.84491
   0  -2   5 5800.82  246.67   1 0.00010-0.27045-0.87534-0.89580-0.48349-0.35267
   0   2  -5 5867.10  238.96   1 0.00009 0.27063-0.98159-0.96077 0.19095 0.06051
   0  -2  -5 5524.27  222.07   1 0.00002 0.11433-0.48598-0.70398 0.87396 0.70094
   0   2   5 6069.99  289.49   1-0.36036-0.47483-0.78994-0.57180 0.49611 0.66900
   0  -2  -5 5917.84  287.76   1-0.48219-0.36793-0.57167-0.78979 0.66383 0.49076
   0   2  -5 5884.00  246.13   1-0.14650 0.12340 0.96843 0.98980 0.20168 0.07116
   0  -2   5 5904.45  256.90   1 0.05313-0.21676 0.99590 0.97453-0.07314 0.05737
   0  -2  -5 5790.28  218.19   1-0.32120-0.20806 0.61325 0.39477-0.72163-0.89490
   0   2   5 6318.03  238.53   1-0.38973-0.50286 0.28538 0.50386-0.87559-0.70231
   0   2  -6 7324.30  379.58   1 0.00010 0.30884 0.92284 0.92425 0.38517 0.22443
   0  -2   6 7540.43  387.94   1 0.00008-0.30839 0.92969 0.92835-0.36834-0.20746
   0  -2  -6 7183.86  362.58   1 0.00005 0.15205 0.78482 0.54704-0.61971-0.82317
   0   2   6 6691.53  347.41   1 0.00002-0.15194 0.49102 0.72880-0.87114-0.66764
   0  -2   6 7557.77  396.78   1 0.00010-0.30884-0.92476-0.92549-0.38053-0.21926
   0   2  -6 6674.54  349.85   1 0.00008 0.30907-0.92856-0.92747 0.37117 0.21036
   0   2   6 6877.33  359.29   1 0.00005-0.15273-0.78490-0.54719 0.61961 0.82294
   0  -2  -6 7036.16  357.06   1 0.00002 0.15281-0.49049-0.72820 0.87144 0.66811
   0   2   6 7107.46  402.39   1-0.32056-0.47357-0.83813-0.60031 0.44132 0.64447
   0  -2  -6 7297.61  404.05   1-0.47002-0.31728-0.60030-0.83814 0.64707 0.44367
   0   2  -6 6515.59  348.56   1-0.11730 0.19098 0.97987 0.98159 0.16149 0.00064
   0  -2  -6 7450.16  391.03   1-0.30867-0.15721 0.65098 0.41269-0.69349-0.89720
   0   2   6 7224.81  363.50   1-0.39358-0.54504 0.25138 0.48967-0.88425-0.68054
   0   2  -7 5066.22  242.37   1 0.00010 0.34727 0.94694 0.92866 0.32138 0.13029
   0  -2   7 5517.68  395.04   1 0.00007-0.34680 0.86897 0.88742-0.49484-0.30364
   0  -2  -7 5300.45  243.33   1 0.00006 0.19043 0.82220 0.56470-0.56919-0.80302
   0   2   7 4974.99  236.53   1 0.00002-0.19032 0.48763 0.74512-0.87304-0.63918
   0  -2   7 5535.09  267.53   1 0.00010-0.34726-0.94841-0.92935-0.31701-0.12531
   0   2  -7 4721.82  225.65   1 0.00007 0.34749-0.86784-0.88632 0.49682 0.30605
   0   2   7 4688.84  234.06   1 0.00006-0.19120-0.82229-0.56487 0.56906 0.80272
   0  -2  -7 5189.75  235.98   1 0.00002 0.19129-0.48696-0.74438 0.87342 0.63976
   0  -2  -7 5445.69  287.62   1-0.46288-0.27166-0.61616-0.87371 0.63724 0.40350
   0   2  -7 4585.87  232.61   1-0.09978 0.24689 0.98548 0.96754 0.13736-0.05382
   0  -2  -7 5494.37  239.43   1-0.29473-0.10494 0.68896 0.43085-0.66216-0.89630
   0   2   7 4872.59  226.24   1-0.39734-0.58713 0.21258 0.47069-0.89270-0.65857
   0   2  -8 4392.20  225.99   1 0.00010 0.38571 0.95836 0.92038 0.28555 0.06410
   0  -2  -8 4116.78  214.81   1 0.00006 0.22881 0.85429 0.57708-0.51978-0.78397
   0  -2   8 4332.26  218.05   1 0.00006-0.38518 0.80873 0.84689-0.58817-0.36661
   0   2   8 4301.08  214.06   1 0.00001-0.22869 0.47822 0.75544-0.87823-0.61400
   0  -2   8 4282.51  230.39   1 0.00010-0.38568-0.95957-0.92072-0.28145-0.05932
   0   2   8 3974.69  220.00   1 0.00006-0.22967-0.85440-0.57727 0.51960 0.78358
   0   2  -8 4127.38  207.75   1 0.00006 0.38596-0.80727-0.84546 0.59017 0.36908
   0  -2  -8 4035.70  201.31   1 0.00001 0.22977-0.47743-0.75455 0.87866 0.61470
   0  -2  -8 4287.13  257.47   1-0.45945-0.22976-0.62353-0.90079 0.63253 0.36846
   0   2  -8 3939.80  212.37   1-0.09019 0.29487 0.98815 0.95056 0.12417-0.09735
   0  -2  -8 4329.21  209.05   1-0.27936-0.05124 0.72666 0.44873-0.62763-0.89219
   0   2   8 4192.80  213.62   1-0.40074-0.62886 0.16962 0.44754-0.90034-0.63578
   0   2  -9 2686.12  168.50   1 0.00010 0.42414 0.96309 0.90542 0.26917 0.01737
   0  -2  -9 2675.65  165.19   1 0.00007 0.26719 0.88209 0.58517-0.47108-0.76562
   0  -2   9 2742.32  163.80   1 0.00005-0.42354 0.75020 0.80816-0.66120-0.40923
   0   2   9 2588.75  161.83   1 0.00001-0.26706 0.46410 0.76103-0.88578-0.59119
   0  -2   9 2867.15  185.99   1 0.00010-0.42410-0.96416-0.90552-0.26529-0.01273
   0   2   9 2373.00  161.69   1 0.00007-0.26814-0.88221-0.58538 0.47083 0.76512
   0   2  -9 2582.46  156.05   1 0.00005 0.42443-0.74863-0.80651 0.66298 0.41156
   0  -2  -9 2660.75  155.77   1 0.00001 0.26824-0.46317-0.75999 0.88626 0.59198
   0  -2  -9 2785.15  200.91   1-0.45879-0.19062-0.62494-0.92192 0.63161 0.33722
   0   2  -9 2326.09  159.62   1-0.08620 0.33725 0.98918 0.93194 0.11867-0.13318
   0  -2  -9 2784.81  158.80   1-0.26253 0.00391 0.76366 0.46592-0.58982-0.88481
   0  -2 -10 3694.53  230.30   1 0.00007 0.30556 0.90625 0.58962-0.42274-0.74764
   0  -2  10 3786.41  226.38   1 0.00004-0.46192 0.69343 0.77111-0.72051-0.43818
   0   2  10 3690.51  222.46   1 0.00001-0.30543 0.44609 0.76274-0.89498-0.57003
   0  -2  10 3981.81  254.72   1 0.00010-0.46252-0.96481-0.88637-0.26293 0.02005
   0   2  10 3538.67  234.92   1 0.00007-0.30662-0.90640-0.58985 0.42242 0.74702
   0   2 -10 3866.68  228.63   1 0.00004 0.46290-0.69158-0.76916 0.72229 0.44056
   0  -2 -10 3661.35  218.43   1 0.00001 0.30672-0.44503-0.76156 0.89551 0.57091
   0  -2 -10 3776.06  261.77   1-0.46020-0.15354-0.62195-0.93864 0.63355 0.30882
   0  -2 -10 3859.13  229.62   1-0.24419 0.06058 0.79961 0.48205-0.54862-0.87404
   0  -2  11 4379.28  214.69   1 0.00003-0.50030 0.63762 0.73501-0.77034-0.45764
   0   2  11 4074.69  210.26   1 0.00001-0.34381 0.42476 0.76112-0.90530-0.54998
   0  -2  11 4519.33  246.20   1 0.00010-0.50094-0.96265-0.86442-0.27075 0.04267
   0  -2 -11 4177.93  212.25   1 0.00001 0.34520-0.42355-0.75979 0.90586 0.55094
   0  -2 -11 4316.39  257.50   1-0.46316-0.11802-0.61555-0.95195 0.63762 0.28257
   0  -2  12 2681.33  164.49   1 0.00003-0.53868 0.58206 0.69917-0.81314-0.47007
   0   2  12 2545.43  161.98   1 0.00001-0.38218 0.40047 0.75655-0.91630-0.53062
   0  -2  12 2734.38  187.20   1 0.00010-0.53937-0.95811-0.84010-0.28636 0.05748
   0  -2 -12 2674.16  165.89   1 0.00001 0.38367-0.39912-0.75506 0.91689 0.53166
   0   2 -12 2492.43  187.37   1-0.30777 0.23248-0.85191-0.96915 0.42370 0.08185
   0  -2 -12 2658.94  195.77   1-0.46731-0.08369-0.60641-0.96252 0.64333 0.25795
   0  -2  13 1140.16  110.66   1 0.00002-0.57705 0.52610 0.66293-0.85041-0.47699
   0   2  13 1216.68  121.61   1 0.00000-0.42056 0.37347 0.74926-0.92764-0.51159
   0  -2 -13 1154.53  114.38   1 0.00000 0.42215-0.37196-0.74761 0.92824 0.51269
   0   2 -13 1129.83  144.45   1-0.32942 0.24928-0.82813-0.96502 0.45351 0.08120
   0  -2 -13 1168.38  176.08   1-0.47236-0.05027-0.59496-0.97079 0.65029 0.23457
   0   2  14 2209.46  974.46   1 0.00000-0.45893 0.34390 0.73941-0.93900-0.49259
   0  -2 -14 2321.76  136.22   1 0.00000 0.46062-0.34223-0.73758 0.93961 0.49374
   0   2 -14 2093.38  170.08   1-0.34969 0.26752-0.80370-0.96032 0.48142 0.07881
   0  -2 -14 2287.49  189.22   1-0.47810-0.01753-0.58153-0.97707 0.65820 0.21215
   0   2  15 1523.18  133.94   1 0.00000-0.49731 0.31183 0.72705-0.95013-0.47336
   0   2 -15 1508.31  161.58   1-0.36873 0.28699-0.77867-0.95501 0.50763 0.07474
   0  -2 -15 1971.91  195.89   1-0.48436 0.01468-0.56633-0.98158 0.66682 0.19044
   0  -4   0  968.29   96.32   1 0.00003-0.15603-0.00311-0.24241 0.99999 0.95754
   0  -4   0  953.54   87.36   1 0.00000-0.15651 0.34213 0.10316-0.93965-0.98227
   0   4   0 1397.44  104.17   1 0.00000 0.15615-0.34288-0.10394 0.93937 0.98224
   0   4   0 1325.29  140.67   1-0.58646-0.43047 0.06483 0.30396 0.80737 0.84987
   0  -4   0  877.38  137.69   1-0.53995-0.69594 0.39482 0.15567 0.74334 0.70102
   0  -4   0  938.05   85.92   1-0.34308-0.50010 0.53679 0.29798-0.77080-0.81307
   0   4   0 1311.05  104.80   1-0.39459-0.23757 0.24161 0.48042-0.88652-0.84424
   0  -4   125447.12  743.40   1 0.00004-0.19450 0.14206-0.07752 0.98985 0.97783
   0  -4   127414.22  675.94   1-0.00000-0.19489 0.25071 0.03145-0.96806-0.98031
   0   4   129460.36  711.38   1 0.00001 0.11768-0.42287-0.16421 0.90618 0.97937
   0   4  -129731.33  720.14   1-0.00000 0.19462-0.25178-0.03254 0.96778 0.98033
   0   4   128561.71  802.71   1-0.58287-0.46516-0.12782 0.13101 0.80244 0.87547
   0   4  -128508.01  798.84   1-0.56695-0.37259 0.26333 0.48282 0.78052 0.79250
   0  -4   129094.66  696.50   1-0.34146-0.53680 0.54303 0.32403-0.76715-0.77899
   0   4   129579.14  743.71   1-0.39251-0.27382 0.26126 0.51989-0.88185-0.80915
   0   4  -128828.25  725.28   1-0.39789-0.20254 0.20633 0.42533-0.89392-0.88208
   0   4   232657.78  823.41   1-0.00001 0.07976 0.19434 0.47274-0.98093-0.87758
   0  -4   229925.88  738.05   1-0.00001-0.23327 0.14719-0.05234-0.98910-0.97100
   0   4   232244.97  766.21   1 0.00002 0.07921-0.49317-0.21481 0.86993 0.97343
   0   4  -232884.97  774.72   1-0.00001 0.23309-0.14868 0.05085 0.98888 0.97112
   0   4   231385.54  862.57   1-0.56123-0.48195-0.29673-0.01820 0.77263 0.87600
   0   4  -231348.67  845.83   1-0.52666-0.29392 0.44375 0.64358 0.72505 0.70668
   0  -4   231214.08  776.05   1-0.33642-0.57010 0.56171 0.36252-0.75584-0.73726
   0  -4  -231874.84  749.99   1-0.33950-0.41986 0.55041 0.27197-0.76274-0.86587
   0   4   233054.36  806.70   1-0.39164-0.31128 0.26902 0.54746-0.87990-0.77677
   0   4  -340562.96 1716.30   1 0.00002 0.27157-0.03049 0.14968 0.99953 0.95070
   0  -4  -336123.73  858.83   1 0.00002-0.04137 0.55502 0.25690-0.83183-0.96555
   0   4   339291.24 1008.75   1-0.00000 0.04139 0.25212 0.55023-0.96769-0.83398
   0   4   339596.89  919.53   1 0.00002 0.04074-0.55525-0.25719 0.83167 0.96550
   0  -4  -337521.28  973.27   1-0.00000-0.04072-0.25255-0.55062 0.96758 0.83375
   0   4   337576.98  995.48   1-0.52883-0.48799-0.43624-0.13798 0.72803 0.86187
   0   4  -338575.85  971.86   1-0.47451-0.20341 0.58998 0.77018 0.65325 0.60451
   0  -4   336927.35  879.07   1-0.32620-0.59821 0.59705 0.41769-0.73287-0.68386
   0  -4  -338823.05  885.25   1-0.33513-0.37716 0.56638 0.26812-0.75292-0.88648
   0   4   340307.66 1707.80   1-0.39183-0.34979 0.26743 0.56568-0.88031-0.74675
   0   4  -4 1699.00  126.27   1 0.00004 0.31007 0.09238 0.25286 0.99572 0.91646
   0  -4   4 1299.10  134.74   1 0.00009-0.30997 0.73526 0.57503 0.67778 0.75712
   0  -4  -4 1359.15  114.65   1 0.00003-0.00299 0.61025 0.29242-0.79220-0.95628
   0   4   4 1666.90  133.31   1-0.00000 0.00302 0.29240 0.61023-0.95629-0.79221
   0   4  -4 1579.38  138.53   1 0.00009 0.31066-0.73648-0.57676-0.67645-0.75553
   0   4   4 1685.52  132.91   1 0.00003 0.00227-0.61041-0.29264 0.79207 0.95621
   0  -4  -4 1408.84  121.57   1-0.00000-0.00223-0.29263-0.61040 0.95622 0.79208
   0   4   4 1653.73  171.08   1-0.49185-0.48949-0.54733-0.22936 0.67713 0.84129
   0   4  -4 1682.49  153.86   1-0.42069-0.11121 0.69827 0.85881 0.57915 0.50006
   0  -4   4 1773.45  166.84   1-0.20673-0.51620 0.93608 0.77543 0.28461 0.36364
   0  -4   4 1377.51  112.71   1-0.30718-0.61751 0.65523 0.49568-0.69014-0.61070
   0  -4  -4 1418.74  115.63   1-0.32932-0.33302 0.58662 0.26855-0.73987-0.90386
   0   4   4 1457.00  121.22   1-0.39284-0.38914 0.25828 0.57634-0.88259-0.71860
   0   4  -523724.17  772.27   1 0.00005 0.34857 0.21605 0.35682 0.97638 0.86670
   0  -4   522153.70  796.93   1 0.00010-0.34831 0.89387 0.75343 0.44831 0.55768
   0  -4  -523313.89  752.38   1 0.00004 0.03538 0.65960 0.32205-0.75161-0.94606
   0   4   523639.37  794.58   1 0.00000-0.03533 0.31927 0.65681-0.94766-0.75322
   0   4  -521532.16  743.69   1 0.00010 0.34904-0.89577-0.75578-0.44450-0.55402
   0   4   523889.46  778.54   1 0.00004-0.03620-0.65972-0.32224 0.75150 0.94596
   0  -4  -524433.92  819.85   1 0.00000 0.03624-0.31932-0.65680 0.94764 0.75318
   0   4   522749.67  813.62   1-0.45387-0.49027-0.63526-0.29761 0.62484 0.81918
   0   4  -522936.63  814.44   1-0.37226-0.02441 0.77379 0.91481 0.51249 0.40313
   0  -4   524679.16  875.01   1-0.12327-0.47112 0.97775 0.83675 0.16970 0.27907
   0  -4   525106.16  808.34   1-0.27101-0.61967 0.74553 0.60580-0.60887-0.49900
   0  -4  -525437.77  816.82   1-0.32218-0.28755 0.61012 0.27223-0.72384-0.91825
   0   4  -617263.27  613.60   1 0.00006 0.38705 0.33160 0.45271 0.94341 0.80326
   0  -4   616973.61  653.62   1 0.00010-0.38675 0.98122 0.86024 0.19286 0.33225
   0  -4  -616493.33  572.44   1 0.00004 0.07375 0.70391 0.34665-0.71028-0.93508
   0   4  -616510.15  609.86   1 0.00010 0.38750-0.98227-0.86189-0.18746-0.32708
   0  -4  -617224.64  616.19   1 0.00000 0.07472-0.33565-0.69283 0.94198 0.71721
   0   4   617068.74  660.58   1-0.41674-0.49165-0.70509-0.34771 0.57373 0.79835
   0   4  -616317.48  596.62   1-0.33169 0.05454 0.82550 0.94687 0.45663 0.31693
   0  -4   618071.38  681.02   1-0.05044-0.43669 0.99630 0.87496 0.06944 0.20915
   0  -4   617653.25  606.74   1-0.19261-0.57970 0.88070 0.76047-0.43273-0.29259
   0  -4  -617859.10  616.35   1-0.31377-0.24082 0.63607 0.27837-0.70494-0.92979
   0   4   617613.87  625.51   1-0.39648-0.46943 0.22210 0.57980-0.89077-0.66592
   0   4  -723016.41  817.15   1 0.00007 0.42554 0.43093 0.53234 0.90238 0.73179
   0  -4   722036.96  823.25   1 0.00009-0.42525 0.99873 0.89716-0.05027 0.11941
   0  -4  -720699.23  737.86   1 0.00005 0.11213 0.74389 0.36691-0.66829-0.92347
   0   4  -723536.48  841.50   1 0.00009 0.42592-0.99834-0.89773 0.05753-0.11248
   0   4   721347.19  788.04   1 0.00005-0.11314-0.74399-0.36710 0.66818 0.92327
   0  -4  -721243.75  777.60   1 0.00000 0.11320-0.34379-0.72068 0.93904 0.68395
   0   4   722997.32  885.68   1-0.38117-0.49459-0.76113-0.38403 0.52476 0.77967
   0  -4  -720951.60  857.87   1-0.54407-0.43113-0.37810-0.75506 0.74901 0.49396
   0   4  -722365.59  830.80   1-0.29952 0.12510 0.86037 0.96209 0.41235 0.24231
   0  -4   722718.26  860.36   1 0.01231-0.41232 0.99978 0.89808-0.01695 0.15308
   0  -4  -721943.22  771.38   1-0.30412-0.19283 0.66382 0.28631-0.68325-0.93852
   0   4   723691.87  840.65   1-0.39869-0.50998 0.19669 0.57421-0.89573-0.64047
   0   4  -8 2953.83  175.37   1 0.00007 0.46403 0.51019 0.59190 0.86006 0.65902
   0  -4   8 3129.14  194.35   1 0.00008-0.46337 0.96562 0.88415-0.25994-0.05964
   0   4   8 2966.48  183.12   1 0.00000-0.15044 0.34575 0.74245-0.93832-0.65278
   0   4  -8 3208.49  191.11   1 0.00008 0.46426-0.96450-0.88338 0.26406 0.06393
   0  -4  -8 2774.26  173.40   1 0.00000 0.15168-0.34536-0.74195 0.93847 0.65306
   0  -4  -8 2970.65  218.79   1-0.53688-0.38532-0.40676-0.80358 0.73912 0.45363
   0   4  -8 2868.71  185.46   1-0.27494 0.18808 0.88382 0.96586 0.37850 0.17813
   0  -4   8 3222.86  211.66   1 0.06647-0.39654 0.99358 0.91153-0.09151 0.10885
   0  -4  -8 2836.85  163.65   1-0.29322-0.14361 0.69283 0.29550-0.65878-0.94448
   0   4   8 2854.19  174.34   1-0.40091-0.55053 0.16716 0.56448-0.90073-0.61503
   0  -4   916712.05  874.48   1 0.00007-0.50180 0.90385 0.84219-0.42784-0.19723
   0   4   916337.62  795.45   1 0.00000-0.18882 0.34202 0.75844-0.93968-0.62378
   0   4  -916802.14  791.12   1 0.00007 0.50254-0.90251-0.84093 0.43066 0.20069
   0  -4  -915976.71  750.52   1 0.00000 0.19015-0.34150-0.75780 0.93988 0.62415
   0  -4  -916692.06  819.62   1-0.53165-0.34162-0.42616-0.84270 0.73192 0.41610
   0  -4  -916872.34  769.97   1-0.28108-0.09314 0.72263 0.30548-0.63150-0.94762
   0  -4  1011944.41  454.49   1 0.00006-0.54018 0.82867 0.78672-0.55973-0.29876
   0   4  1011867.08  474.34   1 0.00000-0.22719 0.33373 0.76986-0.94266-0.59640
   0  -4 -1011558.68  455.98   1 0.00000 0.22863-0.33307-0.76907 0.94290 0.59686
   0  -4 -1012076.42  527.70   1-0.52821-0.29969-0.43839-0.87463 0.72718 0.38103
   0  -4  1113507.21  514.04   1 0.00005-0.57854 0.74754 0.72545-0.66421-0.37282
   0   4  1114294.62  603.28   1 0.00000-0.26556 0.32149 0.77733-0.94691-0.57028
   0  -4 -1113451.50  513.79   1 0.00000 0.26711-0.32069-0.77640 0.94718 0.57082
   0  -4 -1113719.31  574.65   1-0.52632-0.25933-0.44490-0.90086 0.72459 0.34811
   0   4  12  613.53   98.96   1-0.00000-0.30393 0.30576 0.78132-0.95210-0.54511
   0  -4 -12  473.64   98.22   1-0.00000 0.30559-0.30483-0.78024 0.95240 0.54573
   0  -4 -12  481.34  133.46   1-0.52577-0.22029-0.44680-0.92247 0.72382 0.31701
   0   4  13 8730.87  264.93   1-0.00000-0.34231 0.28689 0.78217-0.95796-0.52060
   0  -4 -13 8931.53  267.58   1-0.00000 0.34406-0.28581-0.78094 0.95828 0.52129
   0  -4 -13 8964.12  316.78   1-0.52633-0.18238-0.44488-0.94026 0.72460 0.28746
   0   4  14 7869.47  392.09   1-0.00000-0.38068 0.26511 0.78011-0.96421-0.49649
   0  -4 -14 7741.08  386.70   1-0.00000 0.38254-0.26389-0.77872 0.96455 0.49724
   0  -4 -14 7804.87  426.74   1-0.52783-0.14540-0.43972-0.95481 0.72666 0.25919
   0   4  15 7894.31  275.61   1-0.00000-0.41905 0.24059 0.77530-0.97062-0.47253
   0  -4 -15 7148.77  259.54   1-0.00000 0.42101-0.23921-0.77374 0.97096 0.47334
   0   4 -15 8467.96  346.47   1-0.31061 0.42325-0.84891-0.90586 0.42762 0.01642
   0  -4 -15 7045.08  299.95   1-0.53009-0.10918-0.43176-0.96657 0.72977 0.23197
   0  -6   028909.18 1006.27   1 0.00004-0.23405 0.08467-0.27428 0.99640 0.93273
   0  -6   027800.97  911.29   1 0.00001-0.23476 0.42338 0.06493-0.90594-0.96988
   0   6   027616.00  910.13   1 0.00001 0.23423-0.42401-0.06559 0.90565 0.96996
   0   6   029974.00 1092.64   1-0.58756-0.35357-0.02183 0.33687 0.80888 0.87264
   0  -6   028344.94 1086.83   1-0.51783-0.75181 0.47288 0.11415 0.71289 0.64941
   0  -6   029396.90 1011.20   1-0.32405-0.55958 0.60409 0.24588-0.72804-0.79145
   0  -6  -1 3799.57  229.97   1 0.00003-0.19557 0.00300-0.37564 0.99999 0.90589
   0  -6   1 3559.10  214.14   1 0.00005-0.27253 0.18439-0.15485 0.98285 0.94960
   0  -6  -1 3595.33  185.81   1 0.00001-0.19638 0.47170 0.09353-0.88175-0.97605
   0  -6   1 3568.32  181.47   1 0.00000-0.27313 0.37309 0.03436-0.92779-0.96136
   0   6   1 3862.02  194.34   1 0.00001 0.19576-0.47217-0.09404 0.88150 0.97613
   0   6  -1 3913.02  192.68   1 0.00000 0.27271-0.37392-0.03520 0.92745 0.96145
   0   6   1 4085.08  255.09   1-0.58100-0.38520-0.15052 0.22790 0.79986 0.89424
   0   6  -1 3983.10  247.68   1-0.58417-0.31178 0.10942 0.44846 0.80422 0.83765
   0  -6  -1 3565.82  267.28   1-0.55094-0.74654 0.34811-0.03028 0.75847 0.66464
   0  -6   1 3577.79  268.96   1-0.47187-0.74422 0.59608 0.25698 0.64962 0.61651
   0  -6  -1 3690.46  188.36   1-0.32457-0.52177 0.60242 0.22439-0.72920-0.82304
   0  -6   1 3731.33  188.16   1-0.32152-0.59538 0.61222 0.27382-0.72235-0.75534
   0   6   1 3609.03  188.63   1-0.40002-0.20282 0.17966 0.55769-0.89872-0.80488
   0  -6  -212517.94  485.38   1 0.00002-0.15708-0.06227-0.46064 0.99805 0.87357
   0  -6   211016.27  459.69   1 0.00006-0.31102 0.30255-0.01696 0.95313 0.95025
   0  -6  -211305.86  423.50   1 0.00002-0.15800 0.51787 0.11998-0.85545-0.98012
   0  -6   211502.72  439.05   1 0.00000-0.31151 0.32113 0.00211-0.94703-0.95023
   0   6   213312.09  486.82   1 0.00002 0.15729-0.51822-0.12039 0.85524 0.98018
   0   6  -213606.02  492.61   1 0.00000 0.31118-0.32220-0.00319 0.94666 0.95034
   0   6   214240.84  576.81   1-0.56586-0.40850-0.27007 0.12803 0.77901 0.90373
   0  -6  -212024.41  556.06   1-0.57198-0.72921 0.22973-0.16832 0.78743 0.66326
   0   6  -213899.08  563.84   1-0.57086-0.26013 0.23762 0.55703 0.78590 0.78869
   0  -6   210821.51  521.51   1-0.41460-0.72523 0.70874 0.38914 0.57077 0.56797
   0  -6   211456.16  423.59   1-0.31643-0.62862 0.62804 0.30946-0.71093-0.71348
   0   6   212740.50  477.62   1-0.39926-0.24039 0.18957 0.58741-0.89702-0.77275
   0  -6   3 2175.97  164.90   1 0.00007-0.34949 0.43753 0.13771 0.89920 0.92676
   0  -6  -3 2276.03  144.04   1 0.00002-0.11963 0.56181 0.14421-0.82726-0.98228
   0  -6   3 2269.92  142.74   1-0.00000-0.34989 0.26797-0.03132-0.96342-0.93626
   0   6   3 2735.51  162.63   1 0.00002 0.11881-0.56208-0.14454 0.82708 0.98233
   0   6  -3 2730.35  156.69   1-0.00000 0.34965-0.26935 0.02994 0.96303 0.93639
   0   6   3 3026.91  222.02   1-0.54415-0.42524-0.37773 0.04005 0.74913 0.90419
   0  -6  -3 2552.86  216.90   1-0.58324-0.70203 0.12283-0.29485 0.80295 0.64823
   0   6  -3 2778.23  199.60   1-0.54942-0.20031 0.35498 0.65473 0.75638 0.72883
   0  -6   3 2291.17  203.02   1-0.34903-0.69805 0.80454 0.50459 0.48050 0.50804
   0  -6   3 2345.94  144.47   1-0.30795-0.65847 0.65304 0.35427-0.69187-0.66400
   0  -6  -3 2419.67  147.50   1-0.32082-0.44136 0.61443 0.19677-0.72078-0.87548
   0   6   3 2688.53  163.72   1-0.39904-0.27850 0.19235 0.61001-0.89652-0.74183
   0  -6   416360.02  642.66   1 0.00008-0.38811 0.58371 0.30395 0.81195 0.87004
   0  -6   417125.33  632.91   1-0.00001-0.38826 0.21434-0.06524-0.97675-0.91923
   0   6   417151.81  617.61   1-0.00001 0.08127 0.15340 0.59072-0.98816-0.80277
   0   6   417400.36  618.22   1 0.00003 0.08034-0.60372-0.16648 0.79719 0.98276
   0   6  -417626.05  618.51   1-0.00001 0.38813-0.21609 0.06350 0.97637 0.91941
   0   6   418212.54  701.88   1-0.51789-0.43740-0.47268-0.03515 0.71298 0.89857
   0  -6  -418478.05  734.89   1-0.58741-0.66780 0.03101-0.40632 0.80868 0.62365
   0   6  -417562.18  675.40   1-0.52256-0.13507 0.45758 0.73767 0.71940 0.66150
   0  -6   417162.72  686.54   1-0.27952-0.66693 0.87964 0.59934 0.38482 0.44269
   0  -6   418267.39  639.04   1-0.29471-0.68355 0.68900 0.41005-0.66212-0.60382
   0  -6  -418303.19  628.62   1-0.31694-0.39915 0.62651 0.18903-0.71206-0.89718
   0   6   417147.54  615.28   1-0.39930-0.31709 0.18903 0.62651-0.89711-0.71199
   0  -6   5 3078.71  220.97   1 0.00009-0.42655 0.72829 0.46824 0.68526 0.77381
   0  -6   5 3232.14  172.12   1-0.00001-0.42664 0.16124-0.09862-0.98691-0.89902
   0   6   5 3778.78  209.79   1-0.00001 0.04290 0.18267 0.63971-0.98317-0.76741
   0   6  -5 3582.31  211.45   1 0.00009 0.42751-0.72956-0.47017-0.68391-0.77211
   0  -6  -5 3537.61  208.80   1-0.00001-0.04184-0.18308-0.64003 0.98309 0.76720
   0   6  -5 3955.03  195.61   1-0.00001 0.42660-0.16343 0.09646 0.98655 0.89928
   0   6   5 3981.00  255.82   1-0.48906-0.44704-0.55453-0.09729 0.67328 0.88920
   0  -6  -5 3726.33  260.99   1-0.58708-0.62906-0.04576-0.50276 0.80823 0.59287
   0   6  -5 3860.69  233.44   1-0.49333-0.06748 0.54347 0.80394 0.67916 0.59086
   0  -6   5 3664.42  246.69   1-0.20998-0.63579 0.93399 0.67335 0.28907 0.37729
   0  -6   5 3461.52  181.95   1-0.27437-0.70154 0.73806 0.47892-0.61642-0.52770
   0   6   5 3629.69  193.80   1-0.39996-0.35608 0.18040 0.63769-0.89859-0.68304
   0  -6   6 8431.55  478.61   1 0.00010-0.46488 0.85494 0.61471 0.51872 0.63718
   0   6   6 8733.21  448.07   1-0.00001 0.00453 0.20351 0.68026-0.97907-0.73295
   0   6  -6 8387.27  447.73   1 0.00010 0.46595-0.85722-0.61763-0.51494-0.63357
   0  -6  -6 8830.45  449.78   1-0.00001-0.00336-0.20376-0.68042 0.97902 0.73281
   0  -6  -6 9198.38  518.33   1-0.58421-0.58780-0.10870-0.58555 0.80428 0.55822
   0   6  -6 8917.16  471.82   1-0.46433-0.00011 0.61299 0.85380 0.63924 0.52059
   0  -6   6 9326.50  507.55   1-0.14329-0.60749 0.96982 0.72883 0.19726 0.31582
   0  -6   6 8740.25  434.09   1-0.24271-0.70827 0.80233 0.56262-0.54529-0.42637
   0  -6   7 2792.59  195.58   1 0.00010-0.50331 0.94787 0.72702 0.31863 0.46701
   0   6   7 2805.87  175.71   1-0.00000-0.03383 0.21723 0.71369-0.97612-0.69963
   0  -6  -7 2782.76  175.11   1-0.00000 0.03511-0.21733-0.71369 0.97609 0.69957
   0  -6  -7 2802.59  211.96   1-0.58022-0.54537-0.15895-0.65549 0.79879 0.52239
   0   6  -7 2767.32  179.51   1-0.43740 0.06518 0.66788 0.88903 0.60216 0.45317
   0  -6   7 2996.17  202.18   1-0.08103-0.58362 0.99044 0.76911 0.11156 0.26045
   0  -6   7 2777.40  155.99   1-0.19030-0.69423 0.88372 0.66381-0.42755-0.27820
   0  -6   812873.11  539.16   1 0.00010-0.54187 0.99518 0.79361 0.09799 0.27666
   0  -6  -812704.38  498.39   1-0.00000 0.07359-0.22484-0.74091 0.97439 0.66755
   0  -6  -811317.07  521.53   1-0.57600-0.50270-0.19852-0.71473 0.79297 0.48624
   0  -6   813535.93  550.08   1-0.02384-0.56482 0.99917 0.79750 0.03282 0.21205
   0  -6  -9 1271.48  123.81   1-0.00000 0.11207-0.22714-0.76292 0.97386 0.63670
   0  -6   9 1465.14  153.08   1 0.02828-0.55108 0.99884 0.81681-0.03893 0.17062
   0   6  10 6342.28  321.51   1-0.00000-0.14894 0.22521 0.78082-0.97430-0.60673
   0  -6 -10 6438.95  332.83   1-0.00000 0.15054-0.22490-0.78038 0.97438 0.60690
   0  -6  10 7356.36  373.52   1 0.07568-0.54207 0.99167 0.82930-0.10419 0.13570
   0   6  11 2400.02  186.26   1-0.00000-0.18731 0.21909 0.79441-0.97570-0.57776
   0  -6 -11 2269.12  177.03   1-0.00000 0.18902-0.21864-0.79383 0.97580 0.57801
   0   6  12 6969.78  261.22   1-0.00001-0.22569 0.20936 0.80441-0.97783-0.54953
   0  -6 -12 7495.82  257.68   1-0.00001 0.22750-0.20878-0.80368 0.97796 0.54985
   0   6  13 1247.75  138.70   1-0.00001-0.26406 0.19636 0.81113-0.98053-0.52186
   0  -6 -13 1133.72  124.21   1-0.00001 0.26598-0.19565-0.81025 0.98067 0.52224
   0   6  14 3241.81  173.47   1-0.00001-0.30243 0.18034 0.81482-0.98360-0.49456
   0  -6 -14 3314.51  164.25   1-0.00001 0.30445-0.17949-0.81379 0.98376 0.49501
   0  -8   0  190.86   87.69   1 0.00004-0.31207 0.17388-0.30471 0.98476 0.89986
   0  -8   0  200.42  138.40   1-0.49117-0.80313 0.54910 0.07075 0.67619 0.59157
   0  -8  -1 9380.64  368.62   1 0.00004-0.27359 0.10750-0.39080 0.99420 0.87887
   0  -8   1 9144.51  364.23   1 0.00005-0.35058 0.25147-0.20738 0.96786 0.91328
   0  -8   1 8641.34  314.16   1 0.00001-0.35138 0.47266 0.01445-0.88124-0.93611
   0   8  -110247.52  355.90   1 0.00001 0.35079-0.47330-0.01511 0.88090 0.93632
   0  -8  -1 9534.44  449.04   1-0.52232-0.79592 0.45835-0.03961 0.71908 0.60409
   0  -8   1 9433.85  448.48   1-0.45244-0.80278 0.63822 0.17953 0.62286 0.56860
   0  -8  -214083.41  497.97   1 0.00003-0.23510 0.05186-0.46614 0.99865 0.85289
   0  -8   213155.17  474.50   1 0.00006-0.38906 0.34090-0.09824 0.94009 0.91595
   0  -8   212552.89  408.01   1 0.00001-0.38975 0.44326 0.00476-0.89638-0.92090
   0   8  -214240.34  464.58   1 0.00001 0.38927-0.44406-0.00558 0.89599 0.92110
   0  -8  -214185.82  559.82   1-0.54605-0.78127 0.36973-0.14789 0.75174 0.60641
   0  -8   213312.61  558.12   1-0.40688-0.79547 0.72157 0.28234 0.56015 0.53620
   0  -8   212984.77  431.69   1-0.29371-0.68440 0.69158 0.25359-0.65988-0.68357
   0  -8  -310468.48  420.86   1 0.00003-0.19661 0.00602-0.53169 0.99998 0.82379
   0  -8   3 9617.03  425.87   1 0.00007-0.42753 0.44115 0.02168 0.89743 0.90373
   0  -8   3 9560.10  378.57   1 0.00001-0.42813 0.41557-0.00321-0.90955-0.90371
   0  -8  -311205.18  521.00   1-0.56310-0.75995 0.28625-0.25104 0.77522 0.59954
   0  -8   3 9696.83  482.90   1-0.35550-0.78247 0.79629 0.37671 0.48942 0.49579
   0  -8   3 9911.83  389.53   1-0.28558-0.71460 0.71187 0.29370-0.64161-0.63488
   0  -8  -4  565.03  100.21   1 0.00002-0.15812-0.03103-0.58846 0.99951 0.79290
   0  -8   4  518.33  114.85   1 0.00008-0.46623 0.55055 0.15124 0.83480 0.87163
   0  -8   4  493.42   69.76   1 0.00000-0.46650 0.39030-0.00876-0.92068-0.88447
   0  -8  -4  602.33  145.18   1-0.57459-0.73306 0.20999-0.34695 0.79103 0.58501
   0  -8   4  594.49  150.11   1-0.30022-0.76558 0.85967 0.45974 0.41330 0.45002
   0  -8   4  513.47   77.40   1-0.27394-0.74129 0.73903 0.34066-0.61545-0.57829
   0  -8  -5 7493.49  298.84   1 0.00002-0.11964-0.06020-0.63736 0.99818 0.76121
   0  -8   5 8056.89  336.38   1 0.00009-0.50468 0.66385 0.28426 0.74786 0.81516
   0  -8   5 7665.26  254.64   1 0.00000-0.50488 0.36832-0.01102-0.92969-0.86311
   0  -8  -5 8970.02  387.89   1-0.58177-0.70174 0.14170-0.43486 0.80091 0.56430
   0  -8   5 8487.56  368.06   1-0.24293-0.74670 0.91056 0.53029 0.33444 0.40151
   0  -8   5 8034.73  270.26   1-0.25757-0.76325 0.77381 0.39526-0.57867-0.51108
   0  -8   611490.47  542.55   1 0.00009-0.54303 0.77390 0.41418 0.63329 0.73045
   0  -8   611312.89  446.47   1 0.00000-0.54325 0.35076-0.00887-0.93646-0.83952
   0  -8  -613364.20  582.75   1-0.58569-0.66727 0.08260-0.51362 0.80631 0.53938
   0  -8   613283.75  576.34   1-0.18550-0.72766 0.94887 0.58826 0.25537 0.35278
   0  -8   612463.96  474.83   1-0.23458-0.77861 0.81682 0.45763-0.52703-0.42932
   0  -8  -7 8577.91  394.77   1 0.00002-0.04265-0.09895-0.71552 0.99509 0.69727
   0  -8   7 7665.58  445.05   1 0.00010-0.58145 0.87363 0.53362 0.48657 0.61412
   0  -8  -7 8760.33  460.03   1-0.58739-0.63057 0.03208-0.58380 0.80866 0.51141
   0  -8   7 8881.12  451.85   1-0.12930-0.70984 0.97549 0.63453 0.17800 0.30574
   0  -8  -8  207.91   97.13   1 0.00002-0.00416-0.10991-0.74620 0.99394 0.66570
   0  -8  -8  225.76  149.41   1-0.58766-0.59244-0.01036-0.64590 0.80903 0.48146
   0  -8   8  200.00  100.99   1-0.07531-0.69425 0.99175 0.67044 0.10368 0.26175
   0  -8  -9 4400.23  198.22   1 0.00002 0.03432-0.11609-0.77209 0.99323 0.63457
   0  -8  -9 4627.55  263.78   1-0.58709-0.55347-0.04539-0.70060 0.80824 0.45035
   0  -8   9 4703.99  230.01   1-0.02412-0.68145 0.99915 0.69750 0.03321 0.22162
   0  -8 -10 7309.44  403.55   1-0.58609-0.51407-0.07376-0.74862 0.80687 0.41866
   0  -8  10 7945.57  415.78   1 0.02400-0.67171 0.99916 0.71716-0.03304 0.18569
   0  -8 -11 7003.34  454.02   1 0.00002 0.11131-0.11601-0.81143 0.99324 0.57374
   0  -8 -11 6857.94  477.70   1-0.58497-0.47455-0.09616-0.79068 0.80532 0.38679
   0  -8  11 7842.35  513.01   1 0.06903-0.66506 0.99307 0.73072-0.09504 0.15403
   0 -10   0 3589.98  252.13   1 0.00005-0.39013 0.26440-0.33377 0.96441 0.85812
   0 -10   0 3766.28  313.87   1-0.45957-0.84953 0.62328 0.02535 0.63269 0.52692
   0 -10  -1 5366.11  330.58   1 0.00005-0.35161 0.20795-0.41000 0.97813 0.84158
   0 -10   1 5397.48  344.17   1 0.00006-0.42861 0.32920-0.24927 0.94425 0.86841
   0 -10  -1 5872.80  399.74   1-0.48929-0.84087 0.55394-0.06364 0.67360 0.53747
   0 -10   1 5620.13  386.54   1-0.42478-0.85312 0.69106 0.11278 0.58479 0.50937
   0 -10  -2 8267.31  450.50   1 0.00004-0.31312 0.15904-0.47861 0.98727 0.82029
   0 -10   2 8092.98  466.00   1 0.00006-0.46709 0.40207-0.15671 0.91560 0.87020
   0 -10  -2 9092.42  550.98   1-0.51391-0.82712 0.48510-0.15214 0.70750 0.54102
   0 -10   2 8588.27  530.57   1-0.38543-0.85196 0.75490 0.19604 0.53062 0.48550
   0 -10  -3 4458.53  204.76   1 0.00004-0.27463 0.11747-0.53989 0.99307 0.79566
   0 -10   3 4411.66  231.93   1 0.00007-0.50557 0.48252-0.05656 0.87588 0.86092
   0 -10  -3 4833.41  275.55   1-0.53374-0.80858 0.41855-0.23831 0.73479 0.53795
   0 -10   3 4344.57  268.26   1-0.34184-0.84676 0.81342 0.27421 0.47061 0.45583
   0 -10  -4 3613.07  187.19   1 0.00004-0.23614 0.08270-0.59436 0.99657 0.76873
   0 -10   4 3594.80  221.09   1 0.00008-0.54435 0.56988 0.05103 0.82172 0.83730
   0 -10  -4 3837.64  252.23   1-0.54924-0.78570 0.35578-0.32074 0.75613 0.52895
   0 -10   4 3360.99  244.07   1-0.29507-0.83838 0.86481 0.34525 0.40622 0.42178
   0 -10  -5 3914.85  198.46   1 0.00003-0.19765 0.05418-0.64259 0.99853 0.74027
   0 -10   5 4170.91  241.37   1 0.00009-0.58280 0.66115 0.16201 0.75025 0.79629
   0 -10  -5 4422.10  269.80   1-0.56102-0.75911 0.29782-0.39836 0.77236 0.51482
   0 -10   5 4089.47  261.80   1-0.24613-0.82785 0.90807 0.40817 0.33884 0.38476
   0 -10  -6 5760.39  316.12   1 0.00003-0.15916 0.03135-0.68512 0.99950 0.71082
   0 -10  -6 6303.64  384.37   1-0.56974-0.72945 0.24531-0.47054 0.78435 0.49647
   0 -10   6 6207.26  382.06   1-0.19613-0.81624 0.94266 0.46242 0.27001 0.34626
   0 -10  -7 4632.51  327.82   1 0.00003-0.12067 0.01372-0.72246 0.99990 0.68079
   0 -10  -7 5423.42  433.26   1-0.57604-0.69722 0.19814-0.53730 0.79303 0.47453
   0 -10   7 5154.73  384.18   1-0.14602-0.80452 0.96864 0.50804 0.20102 0.30761
   0 -10  -8 3890.09  257.94   1-0.58039-0.66316 0.15718-0.59793 0.79902 0.45019
   0 -10   8 3962.56  237.03   1-0.09659-0.79348 0.98640 0.54545 0.13298 0.26990
  -1   1   0 8700.44  347.90   1 0.00007 0.00768 0.42955 0.52049 0.90304 0.85383
   1   1   0 8929.63  354.19   1 0.00007 0.07051 0.89756 0.92618-0.44088-0.37042
   1   1   0 8394.21  336.15   1 0.00008 0.07045-0.95099-0.92241 0.30921 0.37972
   1   1   0 8614.39  373.80   1-0.45921-0.38892-0.62406-0.59549 0.63218 0.70293
   1   1   0 9245.71  356.18   1-0.14075-0.07019 0.93818 0.96676-0.31623-0.24585
  -1   1   1 1587.05  121.40   1 0.00004-0.03082 0.10789 0.21851 0.99416 0.97534
   1  -1  -1 1380.78  110.22   1 0.00005 0.03092 0.22689 0.11626 0.97391 0.99273
  -1   1  -1 1567.86  125.04   1 0.00009 0.04619 0.70171 0.77294 0.71245 0.63279
   1  -1   1 1325.93  116.56   1 0.00009-0.04605 0.78598 0.71478 0.61824 0.69782
   1   1  -1 1611.25  124.92   1 0.00008 0.10889 0.92700 0.93592-0.37504-0.33495
  -1  -1  -1 1283.29  108.13   1 0.00008-0.03198 0.92627 0.87795-0.37685-0.47767
   1   1   1 1574.84  121.96   1 0.00007 0.03213 0.87399 0.92230-0.48593-0.38511
  -1   1  -1 1553.03  123.56   1 0.00009 0.04645-0.78637-0.71524-0.61774-0.69733
   1   1  -1 1477.69  118.54   1 0.00009 0.10898-0.99877-0.98999 0.04955 0.08965
   1   1   1 1589.06  120.54   1 0.00008 0.03199-0.92637-0.87805 0.37659 0.47748
  -1  -1  -1 1327.83  114.46   1 0.00007-0.03169-0.87414-0.92245 0.48566 0.38479
   1   1   1 1625.91  161.43   1-0.31593-0.28419-0.84321-0.79495 0.43494 0.53598
  -1   1   1 1228.17  143.03   1-0.58552-0.61627-0.08596 0.02467 0.80608 0.78714
   1  -1  -1 1286.33  137.42   1-0.58731-0.55653 0.03634-0.07421 0.80854 0.82750
  -1   1  -1 1532.75  140.18   1-0.38760-0.34166 0.75167 0.82290 0.53361 0.45397
   1  -1   1 1326.98  128.79   1-0.33350-0.37944 0.82339 0.75216 0.45912 0.53877
   1   1  -1 1522.78  128.83   1-0.27635-0.16756 0.88254 0.89164 0.38045 0.42058
  -1  -1  -1 1433.63  110.80   1-0.14800-0.18019 0.93141 0.88305-0.33251-0.43329
   1   1   1 1625.04  120.22   1-0.19119-0.15900 0.88257 0.93092-0.42955-0.32877
   1  -1  -2  327.83   57.88   1 0.00003 0.06939-0.00492-0.13525 0.99998 0.98837
  -1   1  -2  196.67   59.27   1 0.00010 0.08468 0.86368 0.91517 0.50403 0.39405
   1   1  -2  188.19   42.56   1 0.00009 0.14734 0.99977 0.98901-0.02127-0.01143
  -1  -1  -2  294.44   62.67   1 0.00007 0.00638 0.91939 0.85137-0.39333-0.52451
   1   1   2  176.47   50.65   1 0.00006-0.00624 0.85123 0.91925-0.52478-0.39361
   1  -1  -2  281.02   58.11   1-0.00001 0.06890 0.17141 0.04107-0.98519-0.99677
  -1   1  -2  249.06   60.86   1 0.00010 0.08486-0.94062-0.88926-0.33944-0.44945
   1   1   2  177.37   56.22   1 0.00007-0.00663-0.91940-0.85138 0.39331 0.52450
  -1  -1  -2  274.36   59.35   1 0.00006 0.00678-0.85124-0.91926 0.52477 0.39358
  -1   1   2  156.66   70.14   1-0.53075-0.59994-0.42942-0.29901 0.73068 0.74206
   1  -1  -2  280.29   73.14   1-0.56366-0.49447-0.28307-0.41340 0.77598 0.76458
  -1   1  -2  248.62   65.94   1-0.24520-0.16086 0.90880 0.96037 0.33756 0.22758
   1  -1   2  323.32   74.12   1-0.16372-0.24806 0.96040 0.90883 0.22540 0.33538
   1   1  -2  171.92   76.85   1-0.00285 0.14432 0.99998 0.98943 0.00392 0.01372
  -1  -1  -2  289.11   57.25   1-0.17515-0.16898 0.90247 0.83433-0.39351-0.52472
   1   1   2  181.71   52.37   1-0.23189-0.23807 0.82145 0.88959-0.52099-0.38978
  -1   1  -3 7440.41  309.41   1 0.00010 0.12316 0.93993 0.97179 0.34135 0.20111
  -1  -1  -3 8151.11  323.33   1 0.00007 0.04476 0.92108 0.83336-0.38936-0.55090
   1   1  -3 7359.72  309.49   1 0.00007 0.18563 0.89258 0.86209-0.45087-0.47152
   1   1   3 7476.42  315.14   1 0.00006-0.04462 0.82813 0.91586-0.56053-0.39899
   1  -1  -3 8208.51  314.12   1 0.00000 0.10730 0.37801 0.22795-0.92579-0.96774
  -1   1  -3 7386.34  309.18   1 0.00010 0.12334-0.99533-0.96369-0.09650-0.23680
   1   1   3 7360.49  305.27   1 0.00007-0.04511-0.92105-0.83332 0.38942 0.55093
  -1  -1   3 8030.66  332.71   1 0.00007-0.18560-0.89055-0.86003 0.45488 0.47528
  -1  -1  -3 7984.74  325.01   1 0.00006 0.04525-0.82802-0.91575 0.56069 0.39919
   1  -1  -3 8079.39  311.43   1-0.00001 0.10758-0.15610-0.30608 0.98774 0.94590
  -1  -1  -3 7793.16  358.26   1-0.33590-0.29065-0.82056-0.90831 0.46243 0.30081
   1  -1  -3 8008.41  358.83   1-0.52310-0.41543-0.45579-0.60592 0.72014 0.67843
  -1   1  -3 7185.95  306.92   1-0.15413-0.03140 0.96499 0.99691 0.21219 0.07187
   1  -1   3 8332.80  346.46   1-0.04415-0.16687 0.99717 0.96525 0.06078 0.20110
   1   1  -3 7009.14  292.12   1 0.05695 0.24251 0.99529 0.96508-0.07840-0.09894
  -1  -1  -3 8282.19  316.00   1-0.18835-0.14382 0.88625 0.79831-0.42317-0.58481
  -1   1  -416745.64  569.50   1 0.00010 0.16159 0.97280 0.98496 0.23164 0.06105
   1  -1   415949.63  570.92   1 0.00009-0.16136 0.99589 0.98364-0.09049 0.08006
  -1  -1  -415342.22  520.60   1 0.00008 0.08313 0.92706 0.81964-0.37489-0.56680
   1   1  -416515.64  577.72   1 0.00008 0.22401 0.92843 0.87824-0.37148-0.42249
   1  -1  -415939.94  524.58   1 0.00002 0.14568 0.52521 0.35543-0.85096-0.92327
  -1   1   416297.36  535.63   1-0.00000-0.14567 0.24963 0.41940-0.96834-0.89603
   1  -1   415786.32  545.77   1 0.00010-0.16149-0.97336-0.98514-0.22927-0.05840
  -1   1  -416103.87  555.18   1 0.00009 0.16181-0.99570-0.98373 0.09254-0.07803
  -1  -1   415507.64  549.42   1 0.00008-0.22410-0.92758-0.87720 0.37362 0.42460
  -1  -1  -415550.27  541.23   1 0.00006 0.08373-0.80402-0.91146 0.59459 0.40277
  -1   1   416866.88  559.22   1 0.00002-0.14605-0.52494-0.35525 0.85113 0.92328
   1   1  -416797.47  548.73   1 0.00000 0.22416-0.38223-0.43244 0.92406 0.87335
   1  -1  -415701.91  536.53   1-0.00000 0.14607-0.24878-0.41846 0.96855 0.89640
  -1  -1  -415392.01  581.32   1-0.33380-0.25004-0.82303-0.93050 0.45954 0.26764
   1  -1  -415615.52  578.34   1-0.49183-0.34569-0.54737-0.71721 0.67710 0.60506
  -1   1  -415723.42  538.94   1-0.10025 0.06085 0.98534 0.99761 0.13801-0.03263
   1  -1   416229.80  561.53   1 0.03881-0.12229 0.99781 0.98554-0.05343 0.11722
   1   1  -415744.76  536.72   1 0.07429 0.29825 0.99197 0.94211-0.10228-0.15315
  -1  -1  -416179.81  529.89   1-0.19270-0.10981 0.88058 0.77285-0.43293-0.62500
   1   1   417540.69  623.00   1-0.29350-0.37628 0.69211 0.79993-0.65941-0.46744
   1  -1  -416731.35  541.63   1-0.39807-0.25272 0.20417 0.03407-0.89434-0.96693
  -1   1  -5 1782.36  130.98   1 0.00010 0.20003 0.98659 0.97906 0.16321-0.03771
   1  -1   5 1673.97  135.22   1 0.00008-0.19957 0.97166 0.97924-0.23638-0.03541
   1   1  -5 1773.93  128.86   1 0.00008 0.26239 0.94741 0.87751-0.32001-0.40138
  -1  -1  -5 1704.06  123.21   1 0.00008 0.12151 0.93518 0.80806-0.35414-0.57642
   1  -1  -5 1699.70  115.40   1 0.00003 0.18407 0.63190 0.44240-0.77504-0.87772
  -1  -1   5 1671.74  113.46   1 0.00001-0.26227 0.45894 0.52895-0.88846-0.80710
  -1   1   5 1737.80  114.89   1-0.00000-0.18403 0.30421 0.49370-0.95260-0.84993
   1  -1   5 1771.69  129.96   1 0.00010-0.20000-0.98689-0.97898-0.16134 0.03975
  -1   1  -5 1580.48  124.32   1 0.00008 0.20026-0.97128-0.97904 0.23792 0.03696
  -1  -1   5 1742.30  133.18   1 0.00008-0.26255-0.94690-0.87679 0.32151 0.40287
   1   1   5 1550.47  121.72   1 0.00008-0.12181-0.93515-0.80787 0.35423 0.57661
  -1  -1  -5 1682.94  122.08   1 0.00005 0.12221-0.77904-0.90618 0.62696 0.40482
  -1   1   5 1699.91  122.02   1 0.00003-0.18451-0.63171-0.44231 0.77520 0.87767
   1   1  -5 1682.78  107.30   1 0.00001 0.26264-0.45612-0.52604 0.88991 0.80888
   1  -1  -5 1736.59  113.16   1-0.00000 0.18455-0.30322-0.49261 0.95291 0.85045
  -1  -1  -5 1654.61  139.54   1-0.33728-0.21501-0.81892-0.94611 0.46433 0.24213
   1  -1  -5 1761.51  149.48   1-0.47136-0.28673-0.59726-0.78680 0.64892 0.54654
  -1   1  -5 1567.07  121.82   1-0.06886 0.13063 0.99311 0.98572 0.09480-0.10618
   1   1  -5 1629.27  125.19   1 0.07693 0.33928 0.99139 0.92188-0.10592-0.18712
   1  -1   5 1865.18  138.87   1 0.09954-0.09996 0.98555 0.99293-0.13703 0.06395
  -1  -1  -5 1735.99  117.22   1-0.19104-0.06979 0.88276 0.75525-0.42921-0.65170
   1   1   5 1741.80  117.29   1-0.31720-0.43830 0.62571 0.75335-0.71264-0.49024
   1  -1  -5 1733.97  114.70   1-0.38673-0.20306 0.30902 0.11910-0.86887-0.97189
  -1   1  -6  999.23  102.15   1 0.00010 0.23840 0.99231 0.96519 0.12377-0.10748
   1   1  -6 1002.05   98.89   1 0.00008 0.30076 0.96159 0.87200-0.27446-0.38620
   1  -1   6  883.44  103.72   1 0.00008-0.23796 0.93669 0.96398-0.35013-0.11880
  -1  -1  -6  879.67   97.17   1 0.00008 0.15988 0.94426 0.79743-0.32919-0.58183
   1   1   6  995.60  100.06   1 0.00005-0.15973 0.75345 0.90032-0.65749-0.40485
   1  -1  -6  849.79   88.66   1 0.00004 0.22245 0.71180 0.50259-0.70237-0.83541
  -1  -1   6  826.74   78.68   1 0.00001-0.30064 0.47656 0.56629-0.87913-0.76741
  -1   1   6 1029.20   91.52   1 0.00000-0.22240 0.33421 0.54342-0.94249-0.80946
   1  -1   6  891.12  102.86   1 0.00010-0.23843-0.99259-0.96490-0.12149 0.11000
  -1  -1   6  831.96   98.75   1 0.00008-0.30100-0.96127-0.87141 0.27560 0.38733
   1   1   6  953.14  103.55   1 0.00008-0.16027-0.94423-0.79722 0.32926 0.58202
  -1   1  -6  933.94   96.23   1 0.00008 0.23870-0.93609-0.96359 0.35174 0.12041
  -1  -1  -6  839.86   93.03   1 0.00005 0.16068-0.75296-0.89981 0.65805 0.40560
  -1   1   6  975.58   98.52   1 0.00004-0.22298-0.71170-0.50260 0.70247 0.83526
   1   1  -6  950.70   83.10   1 0.00001 0.30112-0.47405-0.56367 0.88049 0.76914
   1  -1  -6  854.36   86.45   1 0.00000 0.22303-0.33310-0.54220 0.94288 0.81010
   1   1  -6  950.20  110.35   1-0.29377 0.00756-0.86610-0.95591 0.40443 0.29353
  -1  -1  -6  849.40  115.35   1-0.34375-0.18297-0.81109-0.95801 0.47324 0.22075
   1  -1  -6  925.02  115.22   1-0.45901-0.23591-0.62447-0.83374 0.63192 0.49922
  -1   1  -6  921.94   99.47   1-0.05119 0.18669 0.99619 0.96916 0.07048-0.16083
   1   1  -6  886.96   96.93   1 0.07277 0.37350 0.99230 0.90314-0.10018-0.21172
  -1  -1  -6  845.28   86.90   1-0.18501-0.02540 0.89049 0.74319-0.41567-0.66859
   1   1   6  967.19   93.04   1-0.33739-0.49682 0.55820 0.70566-0.75800-0.50518
   1  -1  -6  865.60   82.76   1-0.37217-0.15017 0.40290 0.19317-0.83615-0.96960
   1   1  -6 1015.12   88.38   1-0.36944-0.06893 0.41782 0.32749-0.83002-0.94233
  -1   1  -7 1387.78  126.88   1 0.00010 0.27682 0.99462 0.94783 0.10353-0.15807
   1   1  -7 1410.25  126.99   1 0.00008 0.33914 0.97304 0.86374-0.23062-0.37272
  -1  -1  -7 1381.66  116.03   1 0.00008 0.19826 0.95357 0.78704-0.30116-0.58416
   1  -1   7 1460.77  132.32   1 0.00007-0.27636 0.89687 0.94392-0.44227-0.18061
   1  -1  -7 1402.44  116.38   1 0.00005 0.26085 0.77363 0.54473-0.63363-0.79700
   1   1   7 1403.43  120.33   1 0.00005-0.19811 0.72630 0.89288-0.68737-0.40436
  -1  -1   7 1385.55  106.95   1 0.00001-0.33901 0.47231 0.58175-0.88142-0.73934
  -1   1   7 1354.38  109.40   1 0.00000-0.26077 0.34788 0.57680-0.93753-0.77413
   1  -1   7 1482.49  136.62   1 0.00010-0.27686-0.99485-0.94739-0.10132 0.16057
  -1  -1   7 1397.55  133.74   1 0.00008-0.33945-0.97283-0.86324 0.23151 0.37360
   1   1   7 1298.63  123.31   1 0.00008-0.19872-0.95355-0.78680 0.30120 0.58433
  -1   1  -7 1350.62  123.71   1 0.00007 0.27726-0.89628-0.94336 0.44347 0.18215
  -1   1   7 1374.89  128.52   1 0.00005-0.26145-0.77361-0.54481 0.63365 0.79675
  -1  -1  -7 1365.13  119.66   1 0.00005 0.19915-0.72569-0.89225 0.68801 0.40524
   1   1  -7 1345.41  101.32   1 0.00001 0.33960-0.46989-0.57922 0.88272 0.74105
   1  -1  -7 1328.90  103.96   1 0.00000 0.26151-0.34665-0.57545 0.93799 0.77489
   1   1  -7 1403.19  136.03   1-0.31180 0.02804-0.84765-0.95719 0.42925 0.28808
  -1  -1  -7 1416.66  151.91   1-0.35198-0.15269-0.80080-0.96745 0.48457 0.20179
   1  -1  -7 1391.69  139.02   1-0.45253-0.19076-0.63803-0.86703 0.62299 0.46027
  -1   1  -7 1233.42  123.04   1-0.04229 0.23398 0.99740 0.95072 0.05822-0.20342
   1   1  -7 1245.50  122.20   1 0.06485 0.40398 0.99389 0.88507-0.08929-0.23116
  -1  -1  -7 1412.52  120.07   1-0.17558 0.02238 0.90197 0.73488-0.39447-0.67782
   1   1  -7 1377.42  113.74   1-0.32032 0.01851 0.61600 0.50586-0.71967-0.86241
   1  -1  -7 1453.60  115.71   1-0.35500-0.09467 0.48769 0.25814-0.79757-0.96145
   1   1   7 1371.74  115.08   1-0.35460-0.55236 0.48946 0.65673-0.79667-0.51341
  -1   1  -810343.65  420.12   1 0.00010 0.31524 0.99527 0.92879 0.09711-0.19484
   1   1  -810386.42  413.03   1 0.00009 0.37752 0.98234 0.85334-0.18709-0.35956
  -1  -1  -8 9955.90  408.36   1 0.00008 0.23664 0.96265 0.77643-0.27071-0.58408
   1  -1   810463.20  428.31   1 0.00006-0.31474 0.85494 0.92170-0.51871-0.22669
   1  -1  -810162.95  399.89   1 0.00006 0.29923 0.82277 0.57417-0.56836-0.76208
   1   1   810478.85  418.45   1 0.00004-0.23648 0.69790 0.88420-0.71619-0.40281
  -1  -1   810396.04  398.87   1 0.00001-0.37739 0.45673 0.58589-0.88960-0.71714
  -1   1   810381.01  394.83   1 0.00000-0.29914 0.35017 0.59881-0.93668-0.74291
   1  -1   810506.78  425.80   1 0.00010-0.31529-0.99548-0.92825-0.09496 0.19733
  -1  -1   810135.52  419.20   1 0.00009-0.37790-0.98221-0.85288 0.18777 0.36024
   1   1   8 9659.86  401.16   1 0.00008-0.23717-0.96265-0.77616 0.27072 0.58422
  -1   1  -810206.36  404.50   1 0.00006 0.31573-0.85416-0.92095 0.51999 0.22835
  -1   1   8 9580.50  397.90   1 0.00006-0.29991-0.82281-0.57429 0.56831 0.76173
  -1  -1  -810308.96  416.41   1 0.00004 0.23763-0.69718-0.88344 0.71689 0.40380
   1   1  -810044.82  380.09   1 0.00001 0.37808-0.45430-0.58333 0.89084 0.71886
   1  -1  -810318.22  400.83   1 0.00000 0.29999-0.34882-0.59733 0.93718 0.74377
   1   1  -8 9650.03  408.99   1-0.32848 0.04988-0.82921-0.95847 0.45222 0.28077
  -1  -1  -810081.79  443.88   1-0.36129-0.12349-0.78870-0.97507 0.49739 0.18433
   1  -1  -810027.45  436.66   1-0.44993-0.14964-0.64333-0.89206 0.61941 0.42640
  -1   1  -8 9001.29  368.65   1-0.03927 0.27539 0.99776 0.93142 0.05406-0.23792
   1   1  -8 9162.72  377.95   1 0.05462 0.43213 0.99567 0.86720-0.07520-0.24741
  -1  -1  -810327.41  400.97   1-0.16331 0.07301 0.91580 0.72892-0.36690-0.68068
   1   1  -810577.16  406.32   1-0.26795 0.10922 0.75220 0.62224-0.60199-0.77516
   1  -1  -810685.98  400.82   1-0.33557-0.03691 0.56479 0.31543-0.75392-0.94822
   1   1   810193.68  402.57   1-0.36917-0.60525 0.41929 0.60637-0.82940-0.51572
  -1   1  -9 1706.02  135.57   1 0.00010 0.35366 0.99491 0.90875 0.10073-0.22157
   1   1  -9 1676.86  136.01   1 0.00009 0.41627 0.98987 0.84140-0.14197-0.34460
  -1  -1  -9 1769.01  138.70   1 0.00008 0.27501 0.97119 0.76526-0.23827-0.58200
   1  -1  -9 1782.61  138.29   1 0.00006 0.33761 0.86261 0.59430-0.50585-0.72994
   1  -1   9 1804.57  140.31   1 0.00006-0.35312 0.81179 0.89827-0.58393-0.26155
   1   1   9 1619.06  133.98   1 0.00004-0.27486 0.66820 0.87422-0.74397-0.40023
  -1  -1   9 1778.28  124.25   1 0.00001-0.41576 0.43412 0.58299-0.90085-0.69803
  -1   1   9 1701.79  125.56   1 0.00000-0.33751 0.34414 0.61250-0.93891-0.71478
   1  -1   9 1875.95  150.86   1 0.00010-0.35372-0.99512-0.90811-0.09864 0.22404
  -1  -1   9 1749.00  144.97   1 0.00009-0.41635-0.98961-0.84054 0.14375 0.34659
   1   1   9 1563.63  138.16   1 0.00008-0.27562-0.97121-0.76498 0.23822 0.58209
  -1   1   9 1523.87  137.44   1 0.00006-0.33839-0.86270-0.59447 0.50570 0.72944
  -1   1  -9 1735.24  132.97   1 0.00006 0.35420-0.81083-0.89732 0.58528 0.26331
  -1  -1  -9 1628.14  126.59   1 0.00004 0.27610-0.66736-0.87332 0.74473 0.40133
   1   1  -9 1661.51  118.60   1 0.00001 0.41655-0.43161-0.58035 0.90205 0.69976
   1  -1  -9 1737.58  119.96   1 0.00000 0.33847-0.34266-0.61088 0.93945 0.71572
   1   1  -9 1517.61  143.64   1-0.34412 0.07274-0.81063-0.95957 0.47375 0.27190
  -1  -1  -9 1742.78  156.87   1-0.37130-0.09499-0.77514-0.98123 0.51116 0.16781
   1  -1  -9 1711.80  162.05   1-0.45019-0.11140-0.64280-0.91126 0.61977 0.39647
  -1   1  -9 1472.25  127.02   1-0.04038 0.31267 0.99763 0.91164 0.05559-0.26672
   1   1  -9 1449.18  122.16   1 0.04283 0.45873 0.99734 0.84922-0.05896-0.26151
  -1  -1  -9 1796.32  129.72   1-0.14854 0.12614 0.93089 0.72422-0.33372-0.67793
   1   1  -9 1661.39  123.16   1-0.21387 0.20190 0.85051 0.70097-0.48050-0.68400
   1  -1  -9 1836.37  123.57   1-0.31404 0.02294 0.63525 0.36608-0.70556-0.93029
   1   1   9 1668.45  124.71   1-0.38130-0.65572 0.34745 0.55435-0.85666-0.51256
  -1   1 -10  325.66   73.12   1 0.00010 0.39208 0.99371 0.88787 0.11191-0.24074
   1   1 -10  326.07   77.49   1 0.00009 0.45469 0.99524 0.82709-0.09742-0.33040
  -1  -1 -10  286.61   81.63   1 0.00009 0.31339 0.97895 0.75332-0.20408-0.57817
   1  -1 -10  314.59   74.67   1 0.00007 0.37599 0.89532 0.60729-0.44542-0.69986
   1  -1  10  279.76   76.60   1 0.00005-0.39150 0.76776 0.87394-0.64073-0.28799
   1   1  10  327.20   82.70   1 0.00003-0.31323 0.63714 0.86288-0.77073-0.39663
  -1  -1  10  264.27   67.35   1 0.00001-0.45413 0.40648 0.57507-0.91365-0.68047
  -1   1  10  310.06   67.60   1 0.00000-0.37588 0.33171 0.61979-0.94337-0.68888
   1  -1  10  292.73   84.97   1 0.00010-0.39215-0.99394-0.88716-0.10988 0.24320
  -1  -1  10  258.14   78.21   1 0.00009-0.45480-0.99507-0.82627 0.09907 0.33229
   1   1  10  287.31   84.84   1 0.00009-0.31407-0.97897-0.75300 0.20396 0.57821
  -1   1  10  290.39   81.24   1 0.00007-0.37686-0.89545-0.60751 0.44515 0.69921
  -1   1 -10  339.34   72.78   1 0.00005 0.39267-0.76662-0.87281 0.64209 0.28981
  -1  -1 -10  257.51   70.85   1 0.00003 0.31458-0.63617-0.86184 0.77154 0.39783
   1   1 -10  330.69   66.91   1 0.00001 0.45503-0.40386-0.57231 0.91481 0.68220
   1  -1 -10  271.55   70.43   1 0.00000 0.37695-0.33010-0.61802 0.94394 0.68989
   1   1 -10  284.79   85.62   1-0.35917 0.09620-0.79151-0.96016 0.49447 0.26233
  -1  -1 -10  280.96  101.09   1-0.38174-0.06692-0.76031-0.98612 0.52553 0.15189
   1  -1 -10  266.13   96.97   1-0.45253-0.07522-0.63804-0.92621 0.62299 0.36940
  -1  -1 -10  280.22   70.86   1-0.13112 0.18195 0.94657 0.72030-0.29460-0.66936
   1  -1 -10  284.32   70.84   1-0.29047 0.08484 0.69982 0.41083-0.65258-0.90775
   1   1  10  315.06   69.44   1-0.39111-0.70386 0.27366 0.50038-0.87871-0.50417
  -1  -1 -11 1100.12  112.30   1 0.00009 0.35176 0.98573 0.74040-0.16830-0.57277
   1  -1 -11 1142.09  118.78   1 0.00007 0.41439 0.92241 0.61476-0.38620-0.67107
   1  -1  11 1165.23  112.59   1 0.00004-0.42985 0.72282 0.84878-0.69103-0.30787
   1   1  11 1095.03  113.01   1 0.00003-0.35161 0.60467 0.85011-0.79647-0.39200
  -1  -1  11 1170.28  108.52   1 0.00000-0.49251 0.37485 0.56315-0.92708-0.66353
  -1   1  11 1104.11  111.03   1 0.00000-0.41426 0.31414 0.62193-0.94937-0.66451
   1  -1  11 1327.47  134.75   1 0.00010-0.43058-0.99189-0.86534-0.12703 0.25645
  -1  -1  11 1141.20  125.57   1 0.00009-0.49308-0.99850-0.80954 0.05470 0.31859
   1   1  11 1021.34  115.47   1 0.00009-0.35252-0.98576-0.74005 0.16812 0.57274
  -1   1  11  960.22  121.27   1 0.00007-0.41533-0.92247-0.61483 0.38606 0.67043
  -1   1 -11 1126.20  113.33   1 0.00004 0.43114-0.72153-0.84743 0.69238 0.30978
  -1  -1 -11 1072.06  103.75   1 0.00003 0.35305-0.60354-0.84892 0.79732 0.39329
   1   1 -11 1133.77  103.22   1 0.00000 0.49351-0.37208-0.56023 0.92819 0.66526
   1  -1 -11 1139.84  104.61   1 0.00000 0.41542-0.31238-0.62000 0.94995 0.66558
  -1   1 -11 1025.05  126.70   1-0.29553 0.13594-0.86436-0.99041 0.40686 0.02451
   1   1 -11 1018.94  127.12   1-0.37366 0.12023-0.77185-0.96023 0.51441 0.25198
  -1  -1 -11 1090.43  142.62   1-0.39245-0.03913-0.74435-0.98988 0.54029 0.13636
   1  -1 -11 1068.92  134.72   1-0.45623-0.04073-0.63035-0.93818 0.62809 0.34373
   1   1  11 1087.71  109.02   1-0.39862-0.74969 0.19760 0.44413-0.89557-0.49061
   1  -1  12 5198.65  214.01   1 0.00004-0.46823 0.67697 0.82265-0.73600-0.32248
   1   1  12 5537.73  230.27   1 0.00003-0.38998 0.57069 0.83586-0.82116-0.38632
  -1  -1  12 4987.84  247.99   1 0.00000-0.53088 0.33975 0.54777-0.94051-0.64660
  -1   1  12 5609.55  217.06   1-0.00000-0.45263 0.29223 0.61974-0.95634-0.64112
   1  -1  12 5516.69  248.94   1 0.00010-0.46901-0.98884-0.84251-0.14896 0.26492
  -1  -1  12 5216.04  245.24   1 0.00009-0.53151-0.99996-0.79123 0.00809 0.30238
  -1   1  12 5123.13  237.38   1 0.00008-0.45345-0.94472-0.61692 0.32786 0.64325
  -1   1 -12 5721.43  225.65   1 0.00004 0.46962-0.67547-0.82108 0.73738 0.32446
  -1  -1 -12 5072.12  214.66   1 0.00003 0.39153-0.56942-0.83450 0.82204 0.38769
   1  -1 -12 5390.64  228.24   1-0.00000 0.45390-0.29031-0.61764 0.95693 0.64224
  -1   1 -12 5163.94  251.39   1-0.31691 0.15308-0.84215-0.98793 0.43628 0.02366
   1   1 -12 5233.06  254.85   1-0.38767 0.14472-0.75156-0.95967 0.53371 0.24099
  -1  -1 -12 4989.87  247.24   1-0.40333-0.01149-0.72732-0.99258 0.55526 0.12104
   1  -1 -12 5053.03  244.10   1-0.46122-0.00724-0.61975-0.94729 0.63496 0.32027
   1  -1  13  850.92   99.28   1 0.00003-0.50660 0.62999 0.79539-0.77659-0.33271
   1   1  13  905.96  106.07   1 0.00002-0.42836 0.53514 0.82002-0.84476-0.37956
  -1  -1  13  861.01   95.71   1-0.00000-0.56926 0.30144 0.52918-0.95348-0.62920
  -1   1  13  935.75  102.85   1-0.00000-0.49101 0.26652 0.61374-0.96382-0.61824
  -1  -1 -13  835.92  102.06   1 0.00002 0.43000-0.53370-0.81849 0.84566 0.38100
  -1   1 -13  846.28  131.18   1-0.33681 0.17161-0.81948-0.98494 0.46368 0.02062
   1   1 -13  878.85  131.03   1-0.40128 0.16962-0.73059-0.95842 0.55244 0.22943
  -1  -1 -13  791.78  132.96   1-0.41429 0.01605-0.70927-0.99425 0.57034 0.10584
   1  -1 -13  813.72  131.63   1-0.46705 0.02540-0.60698-0.95423 0.64298 0.29797
   1  -1  14   50.43   66.13   1 0.00003-0.54498 0.58166 0.76677-0.81342-0.33917
   1   1  14  129.10  118.05   1 0.00002-0.46673 0.49791 0.80251-0.86722-0.37166
  -1   1  14   68.41   75.65   1-0.00000-0.52938 0.23734 0.60428-0.97142-0.59547
  -1  -1 -14   36.20   75.79   1 0.00002 0.46848-0.49630-0.80079 0.86815 0.37316
  -1   1 -14   70.75  102.20   1-0.35558 0.19135-0.79619-0.98138 0.48952 0.01616
   1   1 -14   57.16   92.19   1-0.41452 0.19490-0.70888-0.95643 0.57066 0.21736
  -1  -1 -14   84.04  108.49   1-0.42525 0.04360-0.69022-0.99492 0.58544 0.09064
   1  -1 -14   44.79   98.74   1-0.47351 0.05742-0.59232-0.95928 0.65187 0.27653
   1  -1  15  834.01  107.20   1 0.00002-0.58336 0.53173 0.73655-0.84691-0.34229
   1   1  15  856.18  117.61   1 0.00001-0.50511 0.45888 0.78320-0.88849-0.36256
  -1   1  15  783.87  104.68   1-0.00001-0.56775 0.20489 0.59154-0.97878-0.57246
  -1   1 -15  735.13  142.29   1-0.37335 0.21209-0.77228-0.97719 0.51399 0.01035
   1   1 -15  738.26  119.50   1-0.42741 0.22052-0.68635-0.95363 0.58841 0.20482
  -1  -1 -15  775.67  144.77   1-0.43619 0.07117-0.67017-0.99460 0.60049 0.07541
   1  -1 -15  843.50  140.85   1-0.48043 0.08898-0.57596-0.96264 0.66140 0.25572
   1   1  16 2896.28  164.47   1 0.00001-0.54348 0.41793 0.76196-0.90847-0.35218
  -1   1 -16 2798.35  196.07   1-0.39027 0.23368-0.74766-0.97230 0.53728 0.00335
   1   1 -16 2790.88  198.67   1-0.43997 0.24646-0.66297-0.94997 0.60571 0.19183
  -1  -1 -16 2762.91  205.23   1-0.44704 0.09883-0.64913-0.99329 0.61544 0.06006
   1  -1 -16 2819.95  203.21   1-0.48767 0.12021-0.55804-0.96444 0.67137 0.23537
  -1   3   017566.78  579.05   1 0.00003 0.08568 0.00846 0.21903 0.99996 0.97194
  -1  -3   016023.13  518.55   1 0.00003-0.14865 0.64879 0.50073-0.76096-0.85273
   1   3   016853.92  558.15   1 0.00000 0.14870 0.39286 0.54092-0.91959-0.82782
   1   3   016730.30  543.57   1 0.00004 0.14835-0.64933-0.50125 0.76050 0.85249
  -1  -3   016633.08  557.89   1 0.00000-0.14830-0.39404-0.54213 0.91908 0.82710
   1   3   016840.15  613.36   1-0.58527-0.43681-0.09071 0.05748 0.80574 0.89771
  -1   3   015653.24  618.83   1-0.57401-0.48844 0.21454 0.42500 0.79023 0.76209
  -1  -3   014853.03  634.74   1-0.56718-0.71559 0.26192 0.11365 0.78083 0.68920
   1  -3   014188.32  591.95   1-0.52867-0.61424 0.43678 0.22632 0.72782 0.75596
   1   3   017178.98  576.73   1-0.32499-0.17594 0.60105 0.74902-0.73014-0.63875
   1  -3  -1 9643.38  363.61   1 0.00004-0.04711 0.10957-0.12070 0.99397 0.99157
  -1   3  -1 9709.72  373.21   1 0.00004 0.12419 0.15759 0.34845 0.98750 0.92905
  -1  -3   1 9307.12  337.72   1 0.00003-0.18703 0.59847 0.47014-0.80113-0.86254
   1   3   1 9475.09  358.34   1 0.00001 0.11034 0.47571 0.64348-0.87959-0.75746
   1   3  -1 9859.25  373.46   1-0.00000 0.18706 0.24831 0.37665-0.96868-0.90727
   1  -3  -1 9513.94  353.83   1-0.00001-0.04772 0.13090-0.09921-0.99139-0.99392
   1   3   1 9464.73  343.58   1 0.00004 0.10988-0.69120-0.52341 0.72266 0.84496
   1   3  -1 9316.67  337.36   1 0.00003 0.18682-0.59944-0.47107 0.80041 0.86208
  -1  -3   1 9627.26  370.19   1-0.00000-0.18680-0.25020-0.37858 0.96819 0.90652
  -1   3   1 9987.64  374.51   1-0.00001 0.04741-0.13128 0.09875 0.99134 0.99398
   1   3   1 9783.46  416.16   1-0.54931-0.43929-0.35548-0.18759 0.75623 0.87853
  -1  -3  -1 9040.51  426.70   1-0.58725-0.69721-0.03896-0.20686 0.80846 0.68636
  -1   3   1 8710.49  409.80   1-0.58768-0.54046-0.00739 0.22272 0.80905 0.81134
   1  -3  -1 8843.76  421.02   1-0.57199-0.61918 0.22967-0.00044 0.78745 0.78524
   1   3  -1 9835.39  423.40   1-0.57054-0.38375 0.23983 0.36844 0.78546 0.84674
  -1   3  -1 8895.50  402.63   1-0.53188-0.40793 0.42536 0.61615 0.73223 0.67374
  -1  -3   1 8227.50  418.14   1-0.47370-0.66049 0.59187 0.46324 0.65214 0.59088
  -1  -3   1 9608.67  346.76   1-0.23629-0.42367 0.81383 0.68557-0.53087-0.59201
  -1  -3  -1 9525.69  343.77   1-0.26196-0.37268 0.76484 0.59705-0.58855-0.71037
   1   3  -1 9783.15  360.77   1-0.32397-0.13659 0.60437 0.73252-0.72785-0.66689
   1   3   1 9614.70  357.01   1-0.32875-0.21803 0.58855 0.75633-0.73859-0.61677
   1  -3  -1 9720.07  350.15   1-0.39733-0.44548 0.21273-0.01732-0.89267-0.89512
  -1  -3   2 2467.05  157.93   1 0.00003-0.22539 0.00894-0.10003 0.99996 0.96911
   1  -3  -2 2580.17  152.84   1 0.00003-0.00863-0.00405-0.25403 0.99999 0.96715
  -1   3  -2 2584.72  160.38   1 0.00006 0.16268 0.30782 0.47900 0.95144 0.86260
   1  -3   2 2363.53  162.85   1 0.00008-0.16259 0.60110 0.43005 0.79916 0.88804
  -1  -3   2 2506.49  139.40   1 0.00002-0.22541 0.53422 0.42560-0.84534-0.87638
   1   3   2 2536.48  153.06   1 0.00002 0.07197 0.52347 0.71095-0.85204-0.69954
   1  -3  -2 2647.30  152.18   1-0.00000-0.00934 0.25456 0.00473-0.96705-0.99994
   1   3   2 2547.19  146.40   1 0.00005 0.07140-0.72774-0.54024 0.68585 0.83847
   1   3  -2 2512.78  138.91   1 0.00002 0.22529-0.53597-0.42730 0.84423 0.87558
  -1   3   2 2665.89  157.92   1-0.00000 0.00894-0.25480-0.00505 0.96699 0.99994
   1   3   2 2589.83  191.40   1-0.49591-0.42436-0.53662-0.34906 0.68271 0.83550
  -1  -3  -2 2505.33  205.79   1-0.56892-0.64051-0.25071-0.43828 0.78323 0.63059
  -1   3   2 2358.88  194.55   1-0.57453-0.56564-0.21046 0.03944 0.79095 0.82370
   1  -3  -2 2417.54  192.53   1-0.58717-0.59599 0.04236-0.20742 0.80835 0.77573
   1   3  -2 2531.04  179.13   1-0.49523-0.27006 0.53844 0.64741 0.68177 0.71268
  -1   3  -2 2415.84  178.80   1-0.47111-0.30880 0.59783 0.76898 0.64857 0.55972
  -1  -3   2 2384.64  181.01   1-0.32433-0.54946 0.83392 0.72483 0.44651 0.41556
  -1  -3   2 2553.16  144.57   1-0.20815-0.43388 0.85905 0.75058-0.46765-0.49836
  -1  -3  -2 2629.83  146.37   1-0.26581-0.33820 0.75677 0.56917-0.59718-0.74943
   1   3  -2 2568.28  150.46   1-0.32695-0.10124 0.59459 0.70293-0.73454-0.70401
   1   3   2 2578.96  151.72   1-0.33436-0.26196 0.56912 0.75672-0.75120-0.59895
   1  -3  -2 2580.17  145.80   1-0.39278-0.40260 0.25883 0.00895-0.88245-0.91533
   1  -3  -311961.49  430.93   1 0.00002 0.02984-0.08959-0.35928 0.99597 0.93274
  -1   3  -310291.65  607.20   1 0.00007 0.20117 0.44776 0.59925 0.89415 0.77486
   1  -3   311182.80  437.81   1 0.00009-0.20104 0.76397 0.61269 0.64524 0.76432
  -1  -3  -311741.41  409.17   1 0.00005-0.03350 0.76018 0.55292-0.64970-0.83255
   1   3   311142.61  410.40   1 0.00002 0.03360 0.55003 0.75723-0.83514-0.65227
  -1  -3   312161.57  414.00   1 0.00001-0.26379 0.44265 0.35375-0.89669-0.89736
   1  -3  -312231.61  426.15   1 0.00000 0.02904 0.36247 0.09292-0.93199-0.99524
  -1   3  -310583.10  420.76   1 0.00009 0.20173-0.76518-0.61418-0.64380-0.76294
   1   3   311014.04  394.63   1 0.00005 0.03293-0.76038-0.55318 0.64946 0.83240
  -1  -3  -312330.24  448.99   1 0.00002-0.03285-0.55025-0.75745 0.83499 0.65206
   1   3  -310819.11  373.63   1 0.00001 0.26376-0.44593-0.35696 0.89506 0.89610
  -1   3   311362.44  409.14   1 0.00000-0.02951-0.36260-0.09314 0.93194 0.99521
   1   3   311196.75  453.93   1-0.44351-0.41068-0.65610-0.44884 0.61058 0.79364
  -1   3   310052.66  446.26   1-0.54392-0.57345-0.37871-0.10903 0.74881 0.81194
  -1  -3  -311841.71  498.61   1-0.54220-0.57527-0.38579-0.59306 0.74644 0.56332
   1  -3  -311692.67  481.64   1-0.58423-0.55468-0.10844-0.37803 0.80430 0.74122
  -1   3  -310436.92  422.13   1-0.40637-0.20570 0.72240 0.87397 0.55945 0.44029
   1   3  -311301.09  439.31   1-0.39795-0.13443 0.73585 0.82528 0.54786 0.54847
  -1  -3   312288.83  485.32   1-0.17719-0.44071 0.95346 0.86404 0.24393 0.24332
  -1  -3   312467.14  441.35   1-0.16102-0.42511 0.91825 0.82957-0.36176-0.36205
  -1  -3  -312611.82  427.59   1-0.26585-0.29992 0.75667 0.54925-0.59729-0.77997
   1   3  -311132.26  398.71   1-0.33572-0.07169 0.56424 0.65276-0.75426-0.75415
   1   3   311034.41  398.14   1-0.34116-0.30710 0.54415 0.75156-0.76648-0.58381
   1  -3  -312466.72  428.95   1-0.38700-0.35850 0.30695 0.03727-0.86948-0.93278
  -1   3  -4 8835.67  310.64   1 0.00008 0.23968 0.56767 0.69929 0.82325 0.67344
   1  -3   4 7783.97  349.70   1 0.00010-0.23947 0.88894 0.75737 0.45802 0.60748
  -1  -3  -4 8214.47  275.56   1 0.00005 0.00487 0.78982 0.56285-0.61333-0.82653
   1   3   4 8975.73  307.75   1 0.00002-0.00475 0.56294 0.78986-0.82649-0.61326
   1  -3  -4 8439.86  282.40   1 0.00001 0.06742 0.45572 0.16646-0.89012-0.98373
  -1  -3   4 8633.13  286.56   1-0.00000-0.30218 0.29027 0.22108-0.95694-0.92725
   1   3  -4 8701.76  316.59   1 0.00010 0.30271-0.89797-0.82914-0.44004-0.46998
  -1   3  -4 8829.17  339.81   1 0.00010 0.24012-0.89001-0.75875-0.45593-0.60549
   1   3   4 9204.74  310.69   1 0.00005-0.00553-0.78999-0.56308 0.61311 0.82637
  -1  -3  -4 8464.11  299.56   1 0.00002 0.00562-0.56299-0.78990 0.82646 0.61320
   1   3  -4 8984.38  313.77   1-0.00000 0.30222-0.29650-0.22723 0.95503 0.92575
   1  -3  -4 8547.18  293.11   1-0.00001 0.06798-0.15216-0.44132 0.98835 0.89476
   1   3   4 9386.63  365.83   1-0.39695-0.40263-0.73741-0.51042 0.54648 0.75983
  -1   3   4 8379.50  365.22   1-0.50514-0.57315-0.51109-0.22170 0.69542 0.78888
   1  -3  -4 8532.82  353.00   1-0.57306-0.50507-0.22175-0.51103 0.78893 0.69551
  -1   3  -4 8528.69  322.55   1-0.34790-0.10884 0.80596 0.93787 0.47894 0.32945
   1   3  -4 8947.77  353.99   1-0.31350-0.01160 0.84583 0.91561 0.43160 0.40188
  -1  -3   4 8829.70  339.99   1-0.06109-0.36300 0.99458 0.92480 0.08410 0.11382
  -1  -3  -4 8890.14  287.25   1-0.26297-0.25871 0.76274 0.53551-0.59082-0.80392
   1   3  -4 9099.98  301.48   1-0.35291-0.05054 0.49679 0.56550-0.79287-0.82319
   1  -3  -4 8893.62  289.21   1-0.37995-0.31311 0.35629 0.06679-0.85363-0.94736
   1   3  -5 6366.50  344.79   1 0.00003 0.34094-0.01532 0.03451 0.99988 0.93945
  -1   3  -5 6506.48  341.68   1 0.00009 0.27814 0.66139 0.77330 0.75003 0.56976
   1  -3   5 5586.65  321.01   1 0.00010-0.27794 0.96500 0.85296 0.26222 0.44180
  -1  -3  -5 5560.07  294.43   1 0.00006 0.04324 0.81689 0.57021-0.57678-0.82035
   1   3   5 6647.79  348.66   1 0.00002-0.04313 0.56651 0.81314-0.82405-0.58046
   1  -3  -5 5643.34  293.23   1 0.00002 0.10580 0.53618 0.22720-0.84409-0.96808
   1  -3   5 5614.73  309.69   1 0.00009-0.27842-0.66201-0.77338-0.74949-0.56951
  -1   3  -5 6291.55  341.29   1 0.00010 0.27854-0.96608-0.85462-0.25822-0.43821
   1   3  -5 6730.13  351.39   1 0.00009 0.34100-0.97649-0.92709 0.21553 0.15561
   1   3   5 6579.38  340.35   1 0.00006-0.04400-0.81702-0.57041 0.57659 0.82017
  -1  -3  -5 5801.09  312.68   1 0.00002 0.04410-0.56641-0.81303 0.82411 0.58054
   1  -3  -5 5780.61  305.47   1-0.00001 0.10646-0.19576-0.50462 0.98065 0.85674
   1   3   5 6752.59  385.64   1-0.35609-0.40028-0.79553-0.54881 0.49023 0.73387
  -1   3   5 6163.97  375.19   1-0.46411-0.57060-0.61347-0.30436 0.63894 0.76273
   1  -3  -5 5943.51  359.29   1-0.55988-0.45345-0.30401-0.61297 0.77078 0.64702
  -1   3  -5 6231.36  342.33   1-0.29999-0.02253 0.85990 0.97217 0.41299 0.23316
   1   3  -5 6737.02  361.80   1-0.25124 0.08905 0.90401 0.95413 0.34588 0.28583
  -1  -3   5 6322.78  352.29   1 0.02574-0.31455 0.99904 0.94891-0.03543 0.02461
  -1  -3  -5 5854.42  300.54   1-0.25770-0.21511 0.77354 0.52650-0.57897-0.82251
   1   3   5 6157.96  321.80   1-0.35652-0.39912 0.48091 0.72796-0.80100-0.55747
   1  -3  -5 5897.03  301.69   1-0.37158-0.26641 0.40621 0.09689-0.83481-0.95897
   1   3  -5 6467.05  329.13   1-0.38167-0.04098 0.34496 0.39386-0.85750-0.91825
  -1   3  -6 1195.07  109.36   1 0.00009 0.31660 0.73047 0.82266 0.68293 0.47220
   1  -3   6 1077.15  115.50   1 0.00010-0.31641 0.99711 0.90454 0.07592 0.28580
  -1  -3  -6  996.59   94.25   1 0.00006 0.08162 0.84172 0.57533-0.53990-0.81383
   1  -3  -6 1024.76   99.15   1 0.00003 0.14418 0.60580 0.27711-0.79561-0.94995
  -1   3   6 1158.46  104.35   1-0.00000-0.14415 0.22530 0.55400-0.97428-0.81994
   1  -3   6 1041.52  109.33   1 0.00009-0.31682-0.73131-0.82291-0.68204-0.47163
  -1   3  -6 1126.92  111.07   1 0.00010 0.31704-0.99743-0.90560-0.07159-0.28170
   1   3  -6 1209.86  109.36   1 0.00006 0.37925-0.81507-0.78524 0.57935 0.48944
  -1   3   6 1144.05  109.51   1 0.00003-0.14492-0.60585-0.27728 0.79557 0.94979
  -1  -3  -6 1193.23  114.17   1 0.00002 0.08258-0.56308-0.82940 0.82640 0.55251
   1  -3  -6 1036.00   94.32   1-0.00000 0.14495-0.22489-0.55346 0.97438 0.82016
   1   3   6 1206.06  133.31   1-0.31979-0.40254-0.83899-0.57263 0.44025 0.71417
  -1   3   6 1121.71  137.39   1-0.42386-0.56904-0.69270-0.36390 0.58352 0.73739
   1  -3  -6 1070.76  134.13   1-0.54770-0.40283-0.36259-0.69124 0.75401 0.59992
  -1   3  -6 1081.88  118.14   1-0.26284 0.05299 0.89441 0.98700 0.36186 0.15168
   1   3  -6 1151.51  114.59   1-0.20818 0.17050 0.93515 0.96562 0.28661 0.19622
   1  -3   6 1037.54  123.67   1-0.02684-0.34269 0.99895 0.90635 0.03696 0.24713
  -1  -3   6 1197.06  115.68   1 0.09173-0.28695 0.98774 0.95727-0.12629-0.03590
  -1  -3  -6 1030.25   92.02   1-0.25039-0.16947 0.78792 0.52106-0.56256-0.83652
   1  -3  -6 1045.99   97.35   1-0.36185-0.21836 0.45622 0.12709-0.81296-0.96755
   1   3   6 1142.19  104.68   1-0.36442-0.44534 0.44369 0.71055-0.81873-0.54477
   1   3  -7 7266.80  300.96   1 0.00008 0.41788 0.56292 0.57306 0.82650 0.70496
  -1   3  -7 7880.25  335.49   1 0.00009 0.35495 0.77869 0.85113 0.62739 0.38674
   1  -3   7 8676.11  388.29   1 0.00009-0.35483 0.99584 0.92295-0.09109 0.14913
  -1  -3  -7 8043.79  329.64   1 0.00006 0.12000 0.86454 0.57844-0.50256-0.80684
   1  -3  -7 8155.52  334.46   1 0.00004 0.18256 0.66631 0.31790-0.74566-0.93037
  -1   3   7 7468.78  311.62   1-0.00000-0.18252 0.24325 0.59166-0.96996-0.78525
   1  -3   7 8358.81  357.62   1 0.00009-0.35524-0.78007-0.85187-0.62568-0.38485
  -1   3  -7 7263.66  321.50   1 0.00009 0.35545-0.99552-0.92325 0.09446-0.14581
   1   3   7 7346.77  316.45   1 0.00006-0.12095-0.86466-0.57863 0.50235 0.80656
   1   3  -7 7364.35  294.09   1 0.00004 0.41771-0.68519-0.67505 0.72835 0.60812
  -1   3   7 7272.79  317.18   1 0.00004-0.18339-0.66638-0.31810 0.74561 0.93014
  -1  -3  -7 8178.32  344.54   1 0.00002 0.12106-0.55459-0.84062 0.83211 0.52791
   1  -3  -7 8105.13  326.57   1-0.00000 0.18343-0.24268-0.59096 0.97010 0.78556
  -1   3   7 7039.04  363.31   1-0.38544-0.56914-0.75488-0.40636 0.53064 0.71480
   1  -3  -7 8344.61  392.12   1-0.53774-0.35429-0.40347-0.75200 0.74030 0.55584
  -1   3  -7 7172.25  323.21   1-0.23517 0.11906 0.91644 0.98939 0.32376 0.08325
   1   3  -7 7725.95  341.00   1-0.17937 0.23770 0.95228 0.96310 0.24693 0.12621
   1  -3   7 9040.06  390.85   1 0.03134-0.32288 0.99857 0.92563-0.04315 0.19735
  -1  -3  -7 8269.82  329.18   1-0.24128-0.12202 0.80494 0.51827-0.54207-0.84646
   1  -3  -7 8474.68  335.83   1-0.35075-0.16892 0.50594 0.15700-0.78802-0.97304
   1   3   7 7554.70  320.33   1-0.37212-0.49137 0.40317 0.68984-0.83604-0.53165
   1  -3   7 8065.83  328.23   1-0.38602-0.74080 0.31437 0.24283-0.86726-0.62628
   1   3  -8 8101.43  392.61   1 0.00009 0.45634 0.69664 0.68706 0.71742 0.56541
  -1   3  -8 8515.06  357.27   1 0.00009 0.39338 0.81172 0.86445 0.58403 0.31298
   1  -3   8 7961.09  362.77   1 0.00008-0.39293 0.97176 0.91890-0.23595 0.03479
  -1  -3  -8 7333.59  313.00   1 0.00007 0.15838 0.88549 0.57968-0.46465-0.79930
   1  -3  -8 7562.44  315.90   1 0.00004 0.22093 0.71915 0.35102-0.69485-0.90992
   1   3   8 8164.63  351.75   1 0.00002-0.15824 0.54247 0.84825-0.84007-0.50538
  -1   3   8 7928.50  329.81   1-0.00000-0.22089 0.25219 0.62032-0.96767-0.75260
  -1  -3   8 6988.56  312.88   1 0.00009-0.45626-0.69974-0.68927-0.71439-0.56277
   1  -3   8 7726.84  341.49   1 0.00009-0.39367-0.81308-0.86508-0.58214-0.31087
  -1   3  -8 8185.74  347.95   1 0.00008 0.39389-0.97113-0.91859 0.23854-0.03210
   1   3   8 7581.20  326.57   1 0.00007-0.15942-0.88561-0.57988 0.46442 0.79895
  -1   3   8 7760.65  332.17   1 0.00004-0.22186-0.71924-0.35126 0.69475 0.90960
   1   3  -8 8347.11  331.59   1 0.00003 0.45617-0.59401-0.60358 0.80445 0.65390
  -1  -3  -8 7610.54  318.58   1 0.00002 0.15954-0.54200-0.84773 0.84037 0.50585
   1  -3  -8 7475.91  316.09   1-0.00000 0.22191-0.25147-0.61946 0.96786 0.75300
   1  -3  -8 7693.64  369.44   1-0.53015-0.30822-0.43156-0.79981 0.72985 0.51506
  -1   3  -8 7674.11  340.31   1-0.21524 0.17738 0.93052 0.98381 0.29631 0.02547
   1   3  -8 8060.56  347.94   1-0.16079 0.29467 0.96184 0.95300 0.22136 0.07030
   1  -3   8 8757.02  390.01   1 0.08151-0.31111 0.99033 0.93704-0.11221 0.15862
  -1  -3  -8 7621.77  309.15   1-0.23031-0.07246 0.82413 0.51776-0.51745-0.85244
   1  -3  -8 7905.12  318.68   1-0.33824-0.11809 0.55507 0.18630-0.75992-0.97536
   1   3   8 7996.99  337.09   1-0.37944-0.53702 0.35955 0.66604-0.85249-0.51767
  -1   3  -9 4031.90  224.77   1 0.00010 0.43181 0.83313 0.86615 0.55307 0.25163
   1  -3   9 4322.34  241.73   1 0.00008-0.43131 0.93352 0.90037-0.35850-0.05739
   1  -3  -9 3933.02  211.43   1 0.00005 0.25935 0.76544 0.37760-0.64350-0.88890
   1   3   9 3881.92  216.97   1 0.00002-0.19662 0.52658 0.85208-0.85012-0.48507
  -1   3   9 3780.71  205.94   1-0.00000-0.25926 0.25386 0.64170-0.96724-0.72180
  -1  -3   9 3869.80  215.34   1 0.00009-0.49466-0.77025-0.74003-0.63774-0.45568
   1  -3   9 4151.57  238.22   1 0.00010-0.43209-0.83446-0.86666-0.55106-0.24937
  -1   3  -9 3908.13  218.41   1 0.00008 0.43234-0.93250-0.89970 0.36116 0.06015
  -1   3   9 3754.25  217.09   1 0.00005-0.26034-0.76560-0.37791 0.64331 0.88848
  -1  -3  -9 4011.66  219.64   1 0.00002 0.19801-0.52599-0.85142 0.85048 0.48565
   1   3  -9 3945.34  201.06   1 0.00002 0.49464-0.52104-0.55031 0.85353 0.67266
   1  -3  -9 3881.29  204.53   1-0.00000 0.26038-0.25300-0.64069 0.96746 0.72229
  -1  -3  -9 3933.06  250.03   1-0.47376-0.27595-0.59173-0.91728 0.65222 0.28712
   1  -3  -9 3971.22  252.17   1-0.52483-0.26443-0.44998-0.83794 0.72253 0.47742
   1   3  -9 3717.89  218.07   1-0.14962 0.34423 0.96704 0.93856 0.20598 0.02458
  -1  -3  -9 3939.35  202.52   1-0.21792-0.02171 0.84426 0.51811-0.48961-0.85503
   1  -3  -9 4120.22  210.60   1-0.32429-0.06581 0.60333 0.21475-0.72857-0.97444
   1   3   9 3776.11  209.19   1-0.38621-0.58211 0.31298 0.63928-0.86768-0.50244
   1  -3  10  854.56  103.80   1 0.00007-0.46974 0.88625 0.87291-0.46319-0.13176
   1   3  10  839.76  104.79   1 0.00002-0.23499 0.50774 0.85295-0.86150-0.46609
  -1   3  10  902.66  100.31   1-0.00000-0.29763 0.24953 0.65709-0.96836-0.69256
  -1  -3  10  804.69   94.37   1 0.00009-0.53309-0.80668-0.75667-0.59097-0.37850
   1  -3  10  841.02  103.01   1 0.00010-0.47052-0.84723-0.85962-0.53122-0.19911
  -1   3 -10  874.39  100.73   1 0.00007 0.47077-0.88523-0.87196 0.46514 0.13431
  -1  -3 -10  786.29   97.63   1 0.00002 0.23649-0.50702-0.85216 0.86193 0.46677
   1  -3 -10  839.60   94.14   1-0.00000 0.29886-0.24853-0.65592 0.96862 0.69313
  -1  -3 -10  829.73  128.88   1-0.47386-0.23757-0.59151-0.93677 0.65235 0.25692
   1  -3 -10  800.71  126.20   1-0.52152-0.22263-0.46100-0.86867 0.71797 0.44252
  -1  -3 -10  790.55   84.16   1-0.20398 0.03058 0.86507 0.51912-0.45829-0.85414
   1  -3 -10  884.17   90.51   1-0.30884-0.01203 0.65050 0.24210-0.69387-0.97017
   1   3  10  818.88  100.66   1-0.39226-0.62650 0.26352 0.60964-0.88129-0.48562
   1  -3  11 4233.96  197.06   1 0.00006-0.50812 0.83354 0.83991-0.55244-0.19066
   1   3  11 3965.06  192.69   1 0.00002-0.27336 0.48626 0.85119-0.87380-0.44802
  -1   3  11 4023.49  184.46   1-0.00000-0.33601 0.24014 0.66741-0.97073-0.66456
  -1  -3  11 3963.13  203.74   1 0.00010-0.57151-0.82365-0.75383-0.56709-0.32418
   1  -3  11 4252.53  207.24   1 0.00010-0.50894-0.85345-0.84605-0.52116-0.15862
  -1  -3 -11 3961.51  184.15   1 0.00002 0.27496-0.48542-0.85027 0.87427 0.44880
   1  -3 -11 4048.16  177.17   1-0.00000 0.33734-0.23899-0.66609 0.97102 0.66521
  -1  -3 -11 4244.61  244.67   1-0.47557-0.20080-0.58752-0.95250 0.65471 0.22895
   1  -3 -11 4111.48  225.46   1-0.51990-0.18254-0.46625-0.89364 0.71574 0.40997
   1   3  11 4002.02  188.90   1-0.39746-0.67003 0.21119 0.57712-0.89298-0.46687
   1  -3  12 3671.92  209.81   1 0.00005-0.54650 0.77705 0.80313-0.62943-0.23728
   1   3  12 3577.42  215.10   1 0.00001-0.31174 0.46237 0.84702-0.88668-0.43053
  -1   3  12 3655.02  219.13   1-0.00000-0.37438 0.22637 0.67336-0.97404-0.63750
   1  -3  12 2482.21  428.82   1 0.00010-0.54737-0.85446-0.82726-0.51950-0.12653
  -1  -3 -12 3448.63  200.80   1 0.00001 0.31344-0.46140-0.84595 0.88719 0.43140
   1  -3 -12 3630.42  211.50   1-0.00000 0.37582-0.22508-0.67188 0.97434 0.63822
   1   3 -12 3690.13  236.47   1-0.30762 0.30287-0.85206-0.94076 0.42350 0.15242
  -1  -3 -12 3836.00  264.83   1-0.47854-0.16529-0.58049-0.96518 0.65880 0.20271
   1  -3 -12 3653.96  239.11   1-0.51971-0.14386-0.46689-0.91399 0.71548 0.37937
   1  -3  13 2203.96  166.53   1 0.00004-0.58485 0.71758 0.76349-0.69647-0.27389
   1   3  13 2296.04  174.93   1 0.00001-0.35011 0.43621 0.84057-0.89984-0.41333
  -1   3  13 2318.39  177.04   1-0.00001-0.41275 0.20873 0.67544-0.97797-0.61107
  -1  -3 -13 2142.67  162.30   1 0.00001 0.35192-0.43509-0.83936 0.90038 0.41427
   1  -3 -13 2149.55  162.75   1-0.00001 0.41429-0.20728-0.67379 0.97828 0.61184
   1   3 -13 2308.78  190.74   1-0.33032 0.31866-0.82709-0.93540 0.45475 0.15319
  -1  -3 -13 2227.29  202.03   1-0.48250-0.13077-0.57093-0.97533 0.66425 0.17783
   1  -3 -13 2118.12  210.06   1-0.52068-0.10636-0.46373-0.93054 0.71682 0.35038
   1   3  14  214.61   92.33   1 0.00001-0.38848 0.40786 0.83194-0.91304-0.39617
  -1   3  14  192.20   92.73   1-0.00001-0.45113 0.18757 0.67399-0.98225-0.58498
  -1  -3 -14  256.03   87.97   1 0.00001 0.39039-0.40659-0.83056 0.91360 0.39718
   1  -3 -14  237.48   89.39   1-0.00001 0.45277-0.18596-0.67218 0.98255 0.58580
   1   3 -14  201.76  112.16   1-0.35146 0.33603-0.80146-0.92950 0.48386 0.15200
  -1  -3 -14  248.78  136.78   1-0.48723-0.09702-0.55917-0.98329 0.67076 0.15401
   1  -3 -14  243.20  117.40   1-0.52262-0.06981-0.45739-0.94391 0.71948 0.32271
   1   3  15 3127.97  240.62   1 0.00000-0.42686 0.37734 0.82113-0.92607-0.37883
  -1   3  15 3041.58  227.32   1-0.00001-0.48950 0.16313 0.66927-0.98660-0.55897
  -1  -3 -15 3711.46  281.31   1 0.00000 0.42886-0.37592-0.81959 0.92665 0.37991
  -1   3 -15 2946.68  263.91   1-0.31085 0.35276-0.84866-0.93415 0.42794-0.05402
   1   3 -15 3305.91  264.30   1-0.37122 0.35479-0.77525-0.92300 0.51105 0.14891
  -1  -3 -15 3816.54  313.20   1-0.49256-0.06387-0.54549-0.98931 0.67810 0.13102
   1  -3 -15 3626.20  294.12   1-0.52533-0.03405-0.44830-0.95454 0.72321 0.29611
   1  -5   0  810.99   95.65   1 0.00005-0.16362 0.22575-0.10446 0.97418 0.98097
  -1  -5   0  784.98   81.01   1 0.00003-0.22691 0.59394 0.32641-0.80450-0.91758
   1   5   0  527.80   85.86   1-0.00001 0.22693 0.16310 0.43064-0.98660-0.87352
   1  -5   0  813.14   92.90   1-0.00001-0.16435 0.18650-0.14337-0.98245-0.97592
   1   5   0  502.65   68.42   1 0.00003 0.22642-0.59450-0.32694 0.80409 0.91751
  -1   5   0  524.36   82.72   1-0.00001 0.16397-0.18713 0.14268 0.98233 0.97609
  -1  -5   0  855.51   98.76   1-0.00001-0.22640-0.16453-0.43209 0.98637 0.87294
   1   5   0  513.61   96.90   1-0.58477-0.35822-0.09966 0.16811 0.80505 0.91837
  -1   5   0  484.14  112.13   1-0.58471-0.42109 0.10075 0.43078 0.80496 0.79818
  -1  -5   0  759.64  139.05   1-0.53949-0.76590 0.39663 0.12878 0.74271 0.62992
  -1  -5   0  828.12   87.57   1-0.27211-0.49967 0.74309 0.47572-0.61135-0.72388
   1   5   0  485.93   80.74   1-0.37059-0.14303 0.41162 0.67899-0.83260-0.72007
   1  -5   0  814.10   90.07   1-0.37661-0.54160 0.37711 0.04746-0.84613-0.83929
  -1   5  -1 2498.12  166.02   1 0.00002 0.20220-0.10401 0.20648 0.99457 0.95732
  -1  -5   1 2416.11  174.32   1 0.00002-0.26494-0.05245-0.30079 0.99862 0.91614
   1  -5   1 2225.92  170.24   1 0.00006-0.20211 0.33590 0.02539 0.94189 0.97903
  -1  -5  -1 2241.11  148.15   1 0.00003-0.18854 0.62938 0.34213-0.77709-0.92054
  -1  -5   1 2325.94  153.22   1 0.00002-0.26529 0.55694 0.30912-0.83055-0.91327
   1  -5  -1 2349.54  162.12   1-0.00000-0.12597 0.26407-0.08552-0.96450-0.98834
   1   5   1 2444.66  174.76   1-0.00000 0.18857 0.24305 0.53031-0.97001-0.82656
   1   5   1 2390.52  157.57   1 0.00003 0.18794-0.62976-0.34250 0.77678 0.92052
   1   5  -1 2380.77  154.20   1 0.00002 0.26489-0.55773-0.30987 0.83002 0.91312
  -1   5   1 2521.23  175.45   1-0.00000 0.12550-0.26454 0.08497 0.96437 0.98844
  -1  -5  -1 2435.61  177.49   1-0.00000-0.18791-0.24417-0.53143 0.96973 0.82599
   1   5   1 2543.03  198.62   1-0.56744-0.37934-0.26025 0.02721 0.78119 0.92485
  -1   5   1 2485.61  214.19   1-0.58717-0.46196-0.04223 0.30745 0.80835 0.83190
   1   5  -1 2520.86  199.12   1-0.58594-0.32118 0.07719 0.32534 0.80666 0.88937
  -1  -5  -1 2292.54  221.06   1-0.57291-0.76094 0.22290-0.06461 0.78872 0.64559
  -1   5  -1 2429.92  203.59   1-0.57019-0.36825 0.24226 0.55263 0.78497 0.74765
  -1  -5   1 2158.38  217.06   1-0.48176-0.74654 0.57273 0.32452 0.66323 0.58082
   1  -5   1 2231.93  223.98   1-0.46793-0.66985 0.60502 0.29462 0.64419 0.68153
  -1  -5   1 2415.80  158.11   1-0.26404-0.52993 0.76050 0.51294-0.59321-0.67532
  -1  -5  -1 2157.82  152.03   1-0.27657-0.46580 0.73306 0.44587-0.62138-0.76433
   1   5   1 2392.43  162.86   1-0.36982-0.18059 0.41576 0.70295-0.83088-0.68792
   1   5  -1 2371.57  160.91   1-0.37298-0.10710 0.39833 0.64589-0.83798-0.75587
   1  -5   1 2276.58  154.92   1-0.37783-0.58114 0.36968 0.05985-0.84886-0.81159
  -1   5  -2 5569.00  296.38   1 0.00003 0.24069-0.02032 0.27048 0.99979 0.93214
  -1  -5   2 5670.40  318.66   1 0.00004-0.30341 0.09486-0.13375 0.99549 0.94342
   1  -5   2 5471.34  310.78   1 0.00007-0.24058 0.45921 0.16839 0.88832 0.95591
  -1  -5  -2 5482.83  284.66   1 0.00004-0.15016 0.66320 0.35623-0.74843-0.92224
  -1  -5   2 5707.31  294.50   1 0.00002-0.30367 0.51845 0.29035-0.85510-0.90745
   1   5   2 5444.80  296.45   1-0.00000 0.15020 0.30059 0.60755-0.95375-0.77994
   1   5   2 5273.45  279.58   1 0.00004 0.14947-0.66346-0.35649 0.74820 0.92226
   1   5  -2 5316.23  277.32   1 0.00002 0.30337-0.51958-0.29143 0.85442 0.90721
  -1   5   2 5633.98  302.73   1 0.00000 0.08703-0.33753 0.03168 0.94131 0.99570
  -1  -5  -2 6014.23  323.59   1-0.00000-0.14943-0.30143-0.60840 0.95348 0.77942
   1   5   2 5696.03  334.03   1-0.53921-0.38953-0.39772-0.09060 0.74233 0.91654
  -1   5   2 5353.89  339.01   1-0.57816-0.49119-0.17938 0.19009 0.79595 0.85005
  -1  -5  -2 5817.41  373.29   1-0.58633-0.73589 0.06815-0.23897 0.80719 0.63352
   1   5  -2 5672.34  337.79   1-0.56837-0.26521 0.25433 0.48286 0.78247 0.83456
  -1   5  -2 5197.93  336.61   1-0.54529-0.30498 0.37295 0.66366 0.75070 0.68303
   1  -5   2 5330.78  357.40   1-0.40784-0.64807 0.72000 0.42915 0.56147 0.62914
  -1  -5   2 5504.09  364.98   1-0.40266-0.70574 0.72839 0.49967 0.55434 0.50223
  -1  -5   2 5766.21  298.80   1-0.25116-0.55538 0.78644 0.55870-0.56428-0.61595
   1   5   2 5191.33  281.10   1-0.37042-0.21952 0.41253 0.71954-0.83222-0.65883
   1  -5   2 5585.00  295.59   1-0.37774-0.61939 0.37021 0.08019-0.84867-0.78097
   1   5  -2 5157.10  281.83   1-0.37724-0.07302 0.37329 0.60104-0.84754-0.79587
   1  -5  -3 1942.16  135.67   1 0.00003-0.04817-0.01017-0.39951 0.99994 0.91545
  -1   5  -3 1552.72  118.00   1 0.00003 0.27919 0.06394 0.33505 0.99795 0.89988
  -1  -5   3 1769.53  143.79   1 0.00005-0.34190 0.28606 0.07717 0.95820 0.93656
   1  -5   3 1714.65  144.36   1 0.00008-0.27917 0.58952 0.31865 0.80774 0.90582
  -1  -5  -3 1544.89  111.63   1 0.00004-0.11179 0.69540 0.36872-0.71861-0.92279
  -1  -5   3 1831.54  120.78   1 0.00001-0.34204 0.47871 0.27033-0.87796-0.89995
   1  -5  -3 1831.22  126.78   1 0.00001-0.04921 0.40551 0.01648-0.91408-0.99865
   1   5   3 1535.39  123.14   1 0.00000 0.11184 0.34119 0.66788-0.93999-0.73581
   1   5   3 1546.09  114.95   1 0.00004 0.11100-0.69559-0.36891 0.71843 0.92281
   1   5  -3 1535.94  108.21   1 0.00001 0.34184-0.48031-0.27187 0.87709 0.89956
  -1   5   3 1618.69  121.62   1 0.00001 0.04856-0.40577-0.01685 0.91397 0.99867
   1   5   3 1756.34  160.20   1-0.50556-0.39435-0.50989-0.18306 0.69599 0.90053
  -1   5   3 1558.56  169.56   1-0.55985-0.51132-0.30417 0.08499 0.77074 0.85517
  -1  -5  -3 1898.33  184.78   1-0.58668-0.69784-0.05865-0.38544 0.80768 0.60369
   1   5  -3 1578.33  146.22   1-0.53510-0.19357 0.41348 0.62235 0.73667 0.75842
  -1   5  -3 1573.35  144.41   1-0.51335-0.23468 0.48682 0.75790 0.70672 0.60868
   1  -5   3 1815.32  176.66   1-0.34028-0.61890 0.81532 0.54412 0.46846 0.56646
  -1  -5   3 1864.33  165.76   1-0.31124-0.65270 0.84825 0.63918 0.42848 0.40670
  -1  -5   3 1889.15  123.93   1-0.23160-0.57417 0.82194 0.61378-0.52034-0.54184
  -1  -5  -3 2003.58  129.35   1-0.27755-0.39012 0.73083 0.40401-0.62357-0.82738
   1  -5  -3 1931.03  129.52   1-0.36658-0.41658 0.43276 0.04367-0.82360-0.90804
   1   5   3 1572.99  124.11   1-0.37212-0.25954 0.40320 0.73002-0.83603-0.63222
   1  -5   3 1884.42  124.61   1-0.37600-0.65597 0.38078 0.11057-0.84476-0.74663
   1   5  -3 1499.54  114.59   1-0.38349-0.04094 0.33259 0.54052-0.86157-0.84033
   1  -5  -4 1714.46  126.77   1 0.00002-0.00969-0.05953-0.46859 0.99822 0.88336
  -1   5  -4 1617.40  121.05   1 0.00004 0.31770 0.14634 0.39774 0.98923 0.86073
  -1  -5   4 1488.50  138.59   1 0.00007-0.38036 0.51695 0.32776 0.85601 0.86480
   1  -5   4 1538.67  143.63   1 0.00009-0.31762 0.71639 0.46522 0.69769 0.82624
   1  -5  -4 1650.83  118.58   1 0.00001-0.01083 0.46900 0.06026-0.88319-0.99812
  -1  -5   4 1650.74  114.84   1 0.00001-0.38042 0.43814 0.24947-0.89890-0.89052
   1   5   4 1606.09  136.84   1 0.00000 0.07347 0.36892 0.71532-0.92945-0.69492
  -1   5  -4 1504.03  129.69   1 0.00009 0.31859-0.71716-0.46649-0.69690-0.82515
   1   5   4 1623.20  121.74   1 0.00005 0.07252-0.72613-0.37975 0.68754 0.92223
  -1   5   4 1630.64  123.12   1 0.00001 0.01009-0.46920-0.06057 0.88309 0.99811
   1   5  -4 1657.98  114.91   1 0.00001 0.38031-0.44041-0.25167 0.89779 0.88995
   1   5   4 1761.09  154.40   1-0.46998-0.39726-0.60038-0.25384 0.64702 0.88189
  -1   5   4 1590.70  166.18   1-0.53487-0.52474-0.41436-0.00541 0.73635 0.85124
  -1  -5  -4 1812.74  182.60   1-0.58024-0.65302-0.15873-0.50525 0.79882 0.56415
   1   5  -4 1669.43  145.72   1-0.49295-0.11304 0.54446 0.73370 0.67864 0.66999
  -1   5  -4 1600.08  145.76   1-0.47831-0.16127 0.58103 0.83246 0.65849 0.53009
   1  -5   4 1705.75  169.30   1-0.26998-0.58700 0.88823 0.63670 0.37168 0.50003
  -1  -5   4 1744.34  159.74   1-0.21874-0.59860 0.92815 0.73874 0.30113 0.30970
  -1  -5   4 1699.14  117.35   1-0.20241-0.58333 0.86730 0.67893-0.45476-0.44583
  -1  -5  -4 1753.77  121.25   1-0.27495-0.34920 0.73674 0.39011-0.61773-0.85197
   1  -5  -4 1725.10  119.59   1-0.36126-0.37293 0.45906 0.05015-0.81163-0.92650
   1   5   4 1539.83  119.11   1-0.37467-0.30042 0.38866 0.73529-0.84176-0.60751
   1  -5   4 1601.31  114.95   1-0.37192-0.69022 0.40430 0.15391-0.83559-0.70703
   1   5  -4 1571.97  117.26   1-0.39154-0.01066 0.26995 0.45807-0.87966-0.88885
   1  -5  -5 1376.46  114.24   1 0.00002 0.02879-0.09727-0.52604 0.99525 0.84996
  -1   5  -5 1386.15  111.71   1 0.00005 0.35620 0.22429 0.45598 0.97452 0.81559
   1  -5   5 1326.84  135.79   1 0.00010-0.35604 0.82813 0.59678 0.56052 0.71908
  -1  -5  -5 1300.27  107.90   1 0.00005-0.03504 0.75501 0.38889-0.65571-0.92061
   1  -5  -5 1365.47  108.49   1 0.00002 0.02754 0.52778 0.09931-0.84938-0.99467
  -1  -5   5 1374.59  104.61   1 0.00000-0.41880 0.39758 0.22863-0.91756-0.87882
   1   5   5 1376.43  128.46   1 0.00000 0.03510 0.38668 0.75280-0.92220-0.65730
   1   5  -5 1375.54  124.88   1 0.00009 0.41958-0.76152-0.59307-0.64813-0.68717
  -1   5  -5 1353.04  127.19   1 0.00010 0.35702-0.82969-0.59882-0.55821-0.71689
   1   5   5 1381.74  114.62   1 0.00005 0.03405-0.75511-0.38903 0.65558 0.92059
  -1   5   5 1401.78  116.30   1 0.00002-0.02838-0.52793-0.09959 0.84928 0.99462
   1   5  -5 1442.35  107.20   1 0.00001 0.41879-0.40080-0.23177 0.91616 0.87800
  -1  -5  -5 1424.77  129.74   1 0.00000-0.03398-0.38695-0.75304 0.92209 0.65709
   1   5   5 1503.31  146.85   1-0.43448-0.40059-0.67337-0.30714 0.59815 0.86323
  -1   5   5 1386.94  159.14   1-0.50579-0.53415-0.50921-0.08055 0.69632 0.84154
  -1  -5  -5 1404.67  159.33   1-0.57125-0.60558-0.23493-0.60114 0.78643 0.52143
   1  -5  -5 1238.49  150.09   1-0.58617-0.55778-0.07211-0.50044 0.80697 0.66214
  -1   5  -5 1380.45  135.67   1-0.44363-0.08821 0.65587 0.88764 0.61074 0.45199
   1   5  -5 1522.03  138.43   1-0.44915-0.03087 0.64490 0.81449 0.61834 0.57934
   1  -5   5 1431.32  154.69   1-0.20088-0.55629 0.93976 0.70788 0.27655 0.43523
  -1  -5   5 1491.98  144.66   1-0.13293-0.55118 0.97408 0.80432 0.18300 0.22191
  -1  -5   5 1389.81  110.87   1-0.15835-0.57763 0.92106 0.75247-0.35577-0.31641
  -1  -5  -5 1433.32  115.06   1-0.27066-0.30658 0.74629 0.37984-0.60809-0.87276
   1  -5  -5 1449.29  115.31   1-0.35493-0.32827 0.48799 0.05926-0.79742-0.94272
   1  -5   5 1360.15  107.45   1-0.36415-0.72078 0.44502 0.21444-0.81813-0.65915
   1   5  -5 1371.73  110.79   1-0.40038 0.01881 0.17468 0.34298-0.89954-0.93915
  -1   5  -6 8101.18  333.50   1 0.00006 0.39466 0.29533 0.50737 0.95539 0.76603
   1  -5   6 7624.63  366.61   1 0.00010-0.39451 0.91536 0.70344 0.40263 0.59120
  -1  -5  -6 7211.65  303.48   1 0.00005 0.00336 0.78237 0.39646-0.62280-0.91804
   1  -5  -6 7565.82  314.92   1 0.00003 0.06592 0.58206 0.13388-0.81314-0.98880
   1   5   6 8080.99  341.70   1 0.00000-0.00326 0.39660 0.78243-0.91799-0.62272
  -1  -5   6 7812.24  312.31   1 0.00000-0.45717 0.35863 0.20939-0.93347-0.86437
  -1   5  -6 7719.73  340.44   1 0.00010 0.39538-0.91723-0.70609-0.39834-0.58745
   1   5  -6 7321.75  353.08   1 0.00010 0.45797-0.94650-0.79778-0.32268-0.39217
   1   5   6 7694.03  330.89   1 0.00005-0.00442-0.78254-0.39675 0.62259 0.91791
  -1  -5  -6 8156.45  342.23   1 0.00000 0.00449-0.39672-0.78251 0.91793 0.62261
   1   5  -6 8443.63  328.84   1 0.00000 0.45726-0.36325-0.21392 0.93169 0.86321
   1   5   6 8549.44  405.60   1-0.40014-0.40476-0.73241-0.34646 0.55087 0.84624
  -1   5   6 7787.42  403.98   1-0.47450-0.54133-0.59002-0.14163 0.65324 0.82879
  -1  -5  -6 8360.15  408.17   1-0.56205-0.55794-0.29219-0.67808 0.77376 0.47843
   1  -5  -6 8020.81  383.01   1-0.58215-0.51536-0.13702-0.58524 0.80144 0.62600
  -1   5  -6 7956.90  367.89   1-0.41183-0.01804 0.71339 0.92564 0.56697 0.37796
   1   5  -6 8600.95  375.63   1-0.40897 0.04766 0.71815 0.86827 0.56302 0.49379
   1  -5   6 8371.23  393.04   1-0.13545-0.52925 0.97307 0.76084 0.18647 0.37549
  -1  -5   6 8494.05  374.49   1-0.05701-0.51365 0.99528 0.84518 0.07848 0.14772
  -1  -5  -6 7966.83  317.17   1-0.26485-0.26244 0.75880 0.37254-0.59503-0.89013
   1  -5  -6 8205.58  325.55   1-0.34759-0.28260 0.51898 0.07044-0.78092-0.95664
   1  -5   6 7658.06  311.64   1-0.34983-0.74479 0.50979 0.29903-0.78595-0.59654
  -1   5  -7 1568.18  121.02   1 0.00006 0.43315 0.35766 0.55001 0.93384 0.71404
   1  -5   7 1806.96  159.48   1 0.00010-0.43294 0.97269 0.78046 0.23210 0.45102
  -1  -5   7 1932.20  153.58   1 0.00009-0.49567 0.99801 0.86775-0.06296 0.03620
   1   5   7 1600.55  139.05   1 0.00001-0.04163 0.40019 0.80574-0.91642-0.59079
  -1  -5   7 1757.23  121.33   1 0.00000-0.49555 0.32455 0.19503-0.94586-0.84639
  -1   5  -7 1505.30  131.83   1 0.00010 0.43381-0.97387-0.78252-0.22707-0.44661
   1   5  -7 1699.61  130.48   1 0.00009 0.49638-0.99698-0.86782 0.07758-0.02193
  -1  -5  -7 1832.21  144.17   1 0.00001 0.04296-0.40017-0.80567 0.91643 0.59079
   1  -5  -7 1742.23  131.89   1-0.00001 0.10534-0.14462-0.61238 0.98948 0.78351
  -1  -5  -7 2041.83  191.20   1-0.55383-0.51128-0.33456-0.74014 0.76245 0.43678
   1  -5  -7 1873.34  174.40   1-0.57719-0.47196-0.18822-0.65614 0.79461 0.58884
  -1   5  -7 1530.22  137.68   1-0.38388 0.04829 0.75718 0.94978 0.52848 0.30914
   1   5  -7 1631.13  140.34   1-0.37428 0.12074 0.77098 0.90145 0.51526 0.41569
   1  -5   7 1951.45  169.34   1-0.07492-0.50711 0.99184 0.79926 0.10315 0.32250
  -1  -5   7 2034.33  164.51   1 0.00879-0.48623 0.99988 0.86943-0.01211 0.08746
   1  -5   7 1828.89  128.41   1-0.32175-0.75504 0.61148 0.42053-0.72288-0.50304
   1   5   7 1513.72  126.34   1-0.38529-0.42604 0.31970 0.72578-0.86563-0.54011
   1  -5   8  968.81  120.99   1 0.00010-0.47145 0.99808 0.82520 0.06187 0.31107
  -1  -5   8  969.11  100.33   1 0.00007-0.53384 0.89140 0.78131-0.45320-0.32335
  -1  -5   8  917.53   92.65   1-0.00000-0.53393 0.30296 0.19315-0.95300-0.82316
  -1   5   8 1139.17  118.37   1-0.00001-0.14264 0.15681 0.64442-0.98762-0.75124
  -1   5  -8 1081.99  117.03   1 0.00010 0.47231-0.99840-0.82661-0.05645-0.30598
  -1  -5  -8  979.37  116.35   1 0.00001 0.08144-0.39842-0.82363 0.91720 0.56124
   1  -5  -8  999.36  111.94   1-0.00001 0.14382-0.15654-0.64400 0.98767 0.75138
  -1  -5  -8 1006.29  152.22   1-0.54707-0.46608-0.36533-0.79059 0.75315 0.39714
   1  -5  -8  998.22  143.70   1-0.57222-0.42855-0.22795-0.71554 0.78777 0.55166
   1   5  -8 1136.18  122.65   1-0.34597 0.18743 0.80835 0.91917 0.47630 0.34640
   1  -5   8 1033.18  133.73   1-0.01962-0.49020 0.99944 0.82651 0.02701 0.27670
  -1  -5   8 1090.22  128.66   1 0.06562-0.46779 0.99374 0.88294-0.09034 0.03956
   1  -5   8  976.12   99.90   1-0.25246-0.72421 0.78391 0.61235-0.56721-0.31707
   1   5   8 1054.79  112.96   1-0.38922-0.46829 0.28955 0.71544-0.87445-0.51849
   1  -5   9 1656.86  144.46   1 0.00009-0.50988 0.99482 0.84163-0.10157 0.17797
  -1  -5   9 1563.12  115.97   1 0.00003-0.57232 0.64227 0.55217-0.76647-0.60625
  -1  -5   9 1494.82  113.49   1 0.00000-0.57236 0.32192 0.23182-0.94676-0.78654
  -1   5   9 1621.23  134.42   1-0.00001-0.18101 0.16270 0.67003-0.98667-0.71992
  -1  -5  -9 1511.92  134.38   1 0.00000 0.11992-0.39230-0.83721 0.91983 0.53356
   1  -5  -9 1459.89  119.15   1-0.00001 0.18230-0.16229-0.66945 0.98674 0.72013
  -1  -5  -9 1584.15  168.65   1-0.54189-0.42222-0.38705-0.83216 0.74601 0.35949
   1  -5  -9 1614.59  170.62   1-0.56778-0.38566-0.25810-0.76538 0.78166 0.51521
   1  -5   9 1721.86  161.88   1 0.03064-0.47832 0.99863 0.84536-0.04219 0.23783
   1   5   9 1567.12  130.48   1-0.39306-0.51046 0.25622 0.70192-0.88309-0.49670
   1  -5  10 4199.19  234.04   1 0.00008-0.54792 0.96754 0.83455-0.25268 0.05748
   1   5  10 3981.76  227.83   1 0.00000-0.15674 0.38281 0.84751-0.92382-0.50709
  -1   5  10 3717.14  205.49   1-0.00001-0.21939 0.16324 0.69028-0.98658-0.68946
  -1  -5 -10 3878.77  218.00   1 0.00000 0.15840-0.38240-0.84702 0.92399 0.50740
   1  -5 -10 3665.47  196.76   1-0.00001 0.22078-0.16269-0.68956 0.98667 0.68975
  -1  -5 -10 3479.80  245.07   1-0.53826-0.38011-0.40145-0.86627 0.74101 0.32416
   1  -5 -10 3955.86  245.81   1-0.56414-0.34357-0.28030-0.80727 0.77664 0.47986
   1  -5  10 4466.53  263.53   1 0.07633-0.47102 0.99152 0.85790-0.10509 0.20526
   1   5  10 3820.49  208.60   1-0.39669-0.55241 0.21986 0.68538-0.89123-0.47442
   1  -5  11 1310.13  127.70   1 0.00007-0.58630 0.92204 0.80875-0.38708-0.04654
   1   5  11  876.59  116.29   1 0.00000-0.19512 0.36972 0.85413-0.92914-0.48205
  -1   5  11  816.11  106.12   1-0.00001-0.25776 0.15910 0.70586-0.98726-0.65978
  -1  -5 -11 1220.90  126.02   1 0.00000 0.19688-0.36918-0.85351 0.92935 0.48244
   1  -5 -11 1185.99  116.38   1-0.00001 0.25926-0.15841-0.70498 0.98737 0.66013
   1  -5 -11 1254.33  160.03   1-0.56138-0.30238-0.29590-0.84254 0.77284 0.44573
   1   5  11  802.89  110.05   1-0.39995-0.59401 0.18058 0.66592-0.89856-0.45133
   1   5  12  339.33   99.02   1 0.00000-0.23349 0.35364 0.85777-0.93537-0.45792
  -1   5  12  327.70   89.91   1-0.00001-0.29613 0.15081 0.71728-0.98856-0.63071
  -1  -5 -12  374.65   96.59   1 0.00000 0.23535-0.35298-0.85701 0.93563 0.45840
   1  -5 -12  379.71   89.87   1-0.00001 0.29773-0.14997-0.71625 0.98869 0.63113
   1  -5 -12  404.97  123.40   1-0.55951-0.26207-0.30595-0.87229 0.77028 0.41282
   1   5  13 1005.08  130.86   1 0.00000-0.27186 0.33483 0.85868-0.94227-0.43445
  -1   5  13  954.69  112.71   1-0.00001-0.33450 0.13876 0.72495-0.99032-0.60211
  -1  -5 -13  966.00  120.13   1 0.00000 0.27383-0.33403-0.85777 0.94256 0.43501
   1  -5 -13  886.63  103.14   1-0.00001 0.33621-0.13778-0.72377 0.99046 0.60258
   1  -5 -13  974.90  145.50   1-0.55849-0.22260-0.31132-0.89734 0.76887 0.38108
   1   5  14 1655.50  174.31   1 0.00000-0.31024 0.31345 0.85702-0.94960-0.41141
  -1  -5 -14 1781.96  168.51   1 0.00000 0.31230-0.31252-0.85596 0.94990 0.41205
   1   5 -14 1978.61  194.34   1-0.29242 0.47318-0.86741-0.87610 0.40258 0.09243
   1  -5 -14 1863.29  205.93   1-0.55823-0.18390-0.31266-0.91837 0.76851 0.35039
  -1  -7   0 1526.18  137.95   1 0.00003-0.30447-0.00939-0.39707 0.99995 0.86580
   1  -7   0 1479.93  133.84   1 0.00005-0.24167 0.25881-0.19103 0.96592 0.95136
  -1  -7   0 1415.68  111.98   1 0.00003-0.30517 0.61183 0.22481-0.79098-0.92537
   1  -7   0 1440.12  119.77   1 0.00000-0.24259 0.32155-0.12780-0.94688-0.96167
   1   7   0 1560.86  116.74   1 0.00003 0.30450-0.61229-0.22525 0.79063 0.92549
  -1   7   0 1597.22  120.34   1 0.00000 0.24206-0.32212 0.12716 0.94669 0.96189
   1   7   0 1738.45  159.61   1-0.58029-0.27566-0.15826 0.22909 0.79888 0.93355
  -1   7   0 1683.48  165.71   1-0.58770-0.34609-0.00018 0.44942 0.80907 0.82355
  -1  -7   0 1526.74  194.26   1-0.51075-0.81515 0.49468 0.10722 0.70314 0.56923
   1  -7   0 1591.82  194.09   1-0.49648-0.73802 0.53508 0.08544 0.68350 0.66934
  -1  -7   0 1476.74  115.05   1-0.26647-0.57254 0.75535 0.36857-0.59868-0.73235
   1  -7   0 1444.59  112.88   1-0.35073-0.59422 0.50603 0.05698-0.78798-0.80227
   1   7   0 1500.92  123.82   1-0.39092-0.08486 0.27529 0.66207-0.87828-0.74462
  -1  -7  -1  303.83   83.03   1 0.00002-0.26599-0.07883-0.48624 0.99688 0.83235
  -1  -7   1  292.26   82.83   1 0.00003-0.34295 0.07740-0.29056 0.99699 0.89328
   1  -7  -1  281.25   90.58   1 0.00005-0.20317 0.18703-0.28253 0.98235 0.93749
   1  -7   1  262.99   85.07   1 0.00006-0.28014 0.34130-0.08884 0.93995 0.95583
  -1  -7  -1  241.38   62.69   1 0.00003-0.26680 0.63662 0.22988-0.77117-0.93593
  -1  -7   1  258.60   58.27   1 0.00003-0.34355 0.58811 0.22081-0.80877-0.91280
   1  -7  -1  285.54   73.34   1 0.00000-0.20421 0.37056-0.09852-0.92880-0.97395
   1  -7   1  262.89   63.31   1-0.00000-0.28097 0.27208-0.15756-0.96227-0.94669
   1   7   1  359.69   67.26   1 0.00003 0.26602-0.63696-0.23022 0.77089 0.93607
   1   7  -1  403.72   67.31   1 0.00003 0.34297-0.58871-0.22139 0.80833 0.91288
  -1   7   1  398.43   73.27   1 0.00000 0.20359-0.37100 0.09798 0.92863 0.97414
  -1   7  -1  387.56   69.97   1-0.00000 0.28053-0.27278 0.15679 0.96207 0.94695
   1   7   1  419.26   99.83   1-0.56591-0.29973-0.26975 0.13729 0.77908 0.94409
  -1   7   1  399.42  105.08   1-0.58445-0.38096-0.10492 0.36446 0.80461 0.84972
   1   7  -1  434.41   99.87   1-0.58724-0.24448-0.03949 0.32822 0.80844 0.91241
  -1   7  -1  375.56  100.12   1-0.58451-0.30451 0.10389 0.53383 0.80470 0.78885
  -1  -7  -1  249.63  107.86   1-0.54436-0.81038 0.37689-0.03019 0.74941 0.58512
   1  -7  -1  268.66  120.54   1-0.52767-0.73085 0.44027-0.02899 0.72644 0.68191
   1  -7   1  280.82  132.18   1-0.45741-0.73732 0.62787 0.19789 0.62971 0.64590
  -1  -7   1  336.17  128.85   1-0.46507-0.80785 0.61135 0.24355 0.64026 0.53670
  -1  -7   1  256.72   67.36   1-0.26025-0.60465 0.76836 0.40139-0.58471-0.68794
  -1  -7  -1  257.52   63.60   1-0.27015-0.53789 0.74741 0.34081-0.60694-0.77104
   1  -7   1  266.55   65.96   1-0.35029-0.63212 0.50785 0.07861-0.78700-0.77086
   1   7   1  352.67   81.63   1-0.38972-0.12198 0.28543 0.69203-0.87558-0.71148
   1   7  -1  357.75   73.46   1-0.39292-0.04853 0.25750 0.62446-0.88277-0.77954
   1  -7  -213710.48  552.76   1 0.00004-0.16468 0.12549-0.36379 0.99209 0.91680
  -1  -7   212672.51  529.01   1 0.00005-0.38144 0.18387-0.16439 0.98294 0.90965
   1  -7   212336.88  523.95   1 0.00007-0.31862 0.43323 0.02277 0.90128 0.94760
  -1  -7  -212412.19  489.28   1 0.00004-0.22842 0.66198 0.23553-0.74951-0.94464
  -1  -7   212534.82  485.94   1 0.00002-0.38192 0.56612 0.21853-0.82431-0.89798
   1  -7   212471.80  499.58   1-0.00000-0.31934 0.22266-0.18727-0.97489-0.92895
   1   7   213541.07  570.25   1-0.00001 0.22845 0.13434 0.56079-0.99093-0.79581
   1   7   213689.32  532.10   1 0.00004 0.22755-0.66223-0.23579 0.74929 0.94478
   1   7  -214018.24  537.16   1 0.00002 0.38145-0.56692-0.21930 0.82377 0.89799
  -1   7  -214004.42  543.92   1-0.00000 0.31900-0.22354 0.18633 0.97469 0.92925
  -1  -7  -213536.50  564.45   1-0.00001-0.22752-0.13547-0.56191 0.99078 0.79528
   1   7   215022.75  621.76   1-0.54563-0.31789-0.37150 0.05522 0.75117 0.94651
   1   7  -214470.87  629.79   1-0.58579-0.20464 0.08034 0.42840 0.80646 0.88010
  -1   7  -213963.43  603.67   1-0.57524-0.25693 0.20479 0.61508 0.79192 0.74542
  -1  -7  -213606.13  633.63   1-0.56669-0.79434 0.26495-0.16179 0.78016 0.58552
   1  -7  -213901.16  639.79   1-0.55106-0.71586 0.34754-0.14138 0.75864 0.68377
   1  -7   213433.17  637.58   1-0.41134-0.72952 0.71421 0.30373 0.56629 0.61280
  -1  -7   212542.96  594.31   1-0.40854-0.78957 0.71885 0.37050 0.56244 0.48917
  -1  -7   213129.45  504.90   1-0.25088-0.63360 0.78699 0.43984-0.56364-0.63645
   1  -7   212974.57  506.43   1-0.34834-0.66849 0.51591 0.10649-0.78261-0.73605
   1   7   213152.69  525.32   1-0.38927-0.15986 0.28911 0.71552-0.87457-0.68005
   1   7  -213354.84  542.75   1-0.39568-0.01296 0.23051 0.57766-0.88898-0.81617
   1  -7  -3  283.27   90.15   1 0.00003-0.12619 0.07399-0.43499 0.99725 0.89154
  -1  -7   3  271.98   86.01   1 0.00006-0.41993 0.31134-0.01717 0.95029 0.90739
   1  -7   3  282.02   95.80   1 0.00008-0.35730 0.53278 0.14236 0.84625 0.92307
  -1  -7   3  303.23   65.11   1 0.00002-0.42029 0.54676 0.21889-0.83728-0.88058
   1  -7   3  286.81   63.94   1-0.00001-0.35772 0.17396-0.21625-0.98475-0.90844
   1   7   3  232.52   94.28   1-0.00001 0.19008 0.17686 0.62303-0.98423-0.75874
   1   7  -3  252.59   63.18   1 0.00002 0.41992-0.54780-0.21989 0.83660 0.88051
  -1  -7  -3  308.05   95.59   1-0.00001-0.18904-0.17779-0.62394 0.98406 0.75825
  -1   7  -3  247.72   69.71   1-0.00001 0.35748-0.17503 0.21512 0.98456 0.90880
   1   7   3  274.59   91.21   1-0.52102-0.33168-0.46263-0.01624 0.71728 0.94325
  -1  -7  -3  320.35  119.22   1-0.57984-0.76899 0.16298-0.28337 0.79825 0.57301
   1   7  -3  279.66   94.18   1-0.57624-0.15669 0.19647 0.52487 0.79330 0.83662
   1  -7  -3  341.91  122.83   1-0.56743-0.69386 0.26033-0.24825 0.78117 0.67596
  -1   7  -3  236.55   98.58   1-0.56092-0.20423 0.29839 0.68902 0.77221 0.69536
   1  -7   3  297.19  140.15   1-0.35956-0.71613 0.79100 0.40017 0.49500 0.57185
  -1  -7   3  354.00  123.52   1-0.34355-0.76297 0.81134 0.48264 0.47296 0.43003
  -1  -7   3  313.16   69.24   1-0.23745-0.65848 0.81180 0.48415-0.53347-0.57618
   1  -7   3  294.53   70.05   1-0.34448-0.70296 0.53135 0.14174-0.77394-0.69695
   1   7   3  251.32   78.84   1-0.38950-0.19842 0.28722 0.73344-0.87509-0.65014
   1   7  -3  246.30   70.45   1-0.39906 0.02199 0.19218 0.51952-0.89655-0.85417
  -1  -7   4  975.99  128.11   1 0.00007-0.45841 0.45903 0.15020 0.88841 0.87595
   1  -7   4  955.77  125.28   1 0.00008-0.39575 0.63556 0.26486 0.77204 0.87933
  -1  -7   4 1003.27   96.38   1 0.00002-0.45867 0.53126 0.22311-0.84720-0.86014
   1   7   4  958.59  122.95   1-0.00001 0.15171 0.20913 0.67501-0.97788-0.72203
  -1  -7  -4 1083.86  129.08   1-0.00001-0.15056-0.20988-0.67574 0.97772 0.72159
  -1   7  -4  943.58   95.16   1-0.00001 0.39595-0.12804 0.24241 0.99176 0.88569
  -1  -7  -4 1116.59  172.39   1-0.58606-0.73681 0.07458-0.39142 0.80682 0.55125
   1  -7  -4 1168.05  175.42   1-0.57802-0.66603 0.18068-0.34755 0.79576 0.66000
   1   7  -4 1047.81  129.76   1-0.55977-0.10186 0.30458 0.61336 0.77063 0.78320
   1  -7   4 1039.01  167.61   1-0.30412-0.69908 0.85569 0.48451 0.41867 0.52585
  -1  -7   4 1076.35  154.33   1-0.27408-0.73191 0.88458 0.57554 0.37733 0.36475
  -1  -7   4 1022.50   97.78   1-0.21875-0.67814 0.84297 0.53512-0.49146-0.50375
   1  -7   4 1016.01  102.28   1-0.33811-0.73492 0.55555 0.18576-0.75963-0.65221
   1   7   4  943.77  107.15   1-0.39032-0.23756 0.28044 0.74648-0.87692-0.62154
  -1   7  -5  454.64   76.78   1 0.00002 0.43421-0.08023 0.27108 0.99677 0.85905
   1  -7  -5  284.06   87.58   1 0.00003-0.04922-0.00202-0.55042 0.99999 0.83343
  -1  -7   5  273.56   99.01   1 0.00008-0.49704 0.62193 0.33328 0.78306 0.80116
   1  -7   5  276.23   97.52   1 0.00009-0.43418 0.73584 0.38499 0.67715 0.81440
  -1  -7   5  281.60   60.99   1 0.00002-0.49704 0.52144 0.23300-0.85328-0.83585
   1   7   5  379.91   98.84   1-0.00000 0.11334 0.23282 0.71842-0.97251-0.68630
  -1   7  -5  364.72   82.69   1 0.00009 0.43545-0.73752-0.38719-0.67532-0.81268
  -1  -7  -5  318.87  121.72   1-0.58770-0.70005-0.00032-0.48599 0.80907 0.52319
   1  -7  -5  288.53  124.46   1-0.58410-0.63371 0.11050-0.43739 0.80412 0.63804
   1   7  -5  401.08   88.29   1-0.53878-0.04250 0.39940 0.68852 0.74174 0.72396
   1  -7   5  298.21  121.31   1-0.24700-0.68037 0.90738 0.55587 0.34005 0.47758
  -1  -7   5  294.17  113.55   1-0.20405-0.70026 0.93779 0.64840 0.28091 0.29866
  -1  -7   5  295.24   66.19   1-0.19278-0.69053 0.88047 0.59240-0.43312-0.41498
   1  -7   5  267.84   67.17   1-0.32823-0.76337 0.59029 0.24031-0.73743-0.59958
   1   7   5  479.43   94.83   1-0.39161-0.27719 0.26932 0.75518-0.87982-0.59402
   1  -7  -612132.61  468.75   1 0.00002-0.01073-0.02830-0.59641 0.99959 0.80260
  -1  -7   611222.11  523.28   1 0.00009-0.53530 0.78274 0.51394 0.62233 0.67030
   1  -7   610852.64  484.94   1 0.00010-0.47261 0.82866 0.49752 0.55974 0.72740
  -1  -7   610948.21  433.56   1 0.00002-0.53541 0.52010 0.25137-0.85410-0.80631
   1   7   611704.47  465.62   1-0.00000 0.07497 0.24932 0.75464-0.96842-0.65184
  -1   7  -611837.45  483.51   1 0.00010 0.47388-0.83040-0.49987-0.55716-0.72495
  -1  -7  -612476.20  553.01   1-0.58655-0.66050-0.06243-0.56776 0.80750 0.49129
   1  -7  -611957.76  544.95   1-0.58696-0.59817 0.04983-0.51772 0.80807 0.61167
   1   7  -612855.98  516.66   1-0.51551 0.01914 0.48016 0.74962 0.70970 0.66158
   1  -7   612189.30  546.97   1-0.19006-0.66182 0.94625 0.61439 0.26166 0.42953
  -1  -7   612770.39  531.90   1-0.13637-0.67097 0.97270 0.70297 0.18774 0.23583
  -1  -7   612050.93  451.16   1-0.15638-0.69249 0.92309 0.65482-0.35133-0.30276
   1  -7   611603.84  447.13   1-0.31314-0.78661 0.63794 0.30777-0.70354-0.53526
   1  -7  -7   48.81   93.70   1 0.00002 0.02775-0.04777-0.63560 0.99885 0.77151
   1  -7   7   27.03   90.14   1 0.00010-0.51107 0.90581 0.59402 0.42367 0.62123
  -1  -7   7   63.66   48.72   1 0.00002-0.57378 0.53210 0.28309-0.84667-0.76852
   1   7   7   50.22  100.26   1-0.00000 0.03660 0.25970 0.78473-0.96568-0.61874
  -1  -7  -7   31.43   92.58   1-0.00000-0.03512-0.25999-0.78497 0.96560 0.61853
  -1  -7  -7   21.36  113.82   1-0.58391-0.61945-0.11325-0.63840 0.80387 0.45685
   1  -7   7   40.75  124.84   1-0.13461-0.64476 0.97341 0.66120 0.18532 0.38352
  -1  -7   7  142.87   93.07   1-0.07290-0.64589 0.99227 0.74219 0.10036 0.17879
   1  -7   7   32.40   52.35   1-0.28967-0.80147 0.70180 0.39145-0.65080-0.45210
   1  -7  -8  685.13  107.64   1 0.00002 0.06624-0.06140-0.66895 0.99811 0.74034
   1  -7   8  675.26  120.60   1 0.00010-0.54950 0.96277 0.67067 0.27031 0.49823
  -1  -7   8  734.59  114.24   1 0.00010-0.61229 0.99609 0.76583 0.08829 0.19643
   1   7   8  695.16  113.55   1-0.00000-0.00176 0.26484 0.80959-0.96429-0.58698
  -1  -7  -8  665.88  108.18   1-0.00000 0.00335-0.26500-0.80968 0.96424 0.58685
  -1  -7  -8  706.24  137.61   1-0.58071-0.57780-0.15370-0.69854 0.79946 0.42210
   1  -7   8  695.75  140.68   1-0.08152-0.63006 0.99033 0.69777 0.11223 0.34077
  -1  -7   8  765.76  116.09   1-0.01445-0.62583 0.99969 0.76926 0.01990 0.12866
   1   7   8  639.45  100.04   1-0.39724-0.39780 0.21373 0.75903-0.89247-0.51538
   1  -7  -9  325.38  100.25   1 0.00002 0.10473-0.06974-0.69700 0.99756 0.70937
   1  -7   9  315.96   94.70   1 0.00010-0.58808 0.99418 0.72130 0.10772 0.36589
   1   7   9  265.23  108.02   1-0.00000-0.04013 0.26544 0.82990-0.96412-0.55645
  -1  -7  -9  306.36  103.61   1-0.00000 0.04183-0.26546-0.82985 0.96411 0.55640
  -1  -7  -9  317.15  128.76   1-0.57750-0.53615-0.18547-0.75000 0.79504 0.38735
   1  -7   9  304.13  122.67   1-0.03130-0.61822 0.99857 0.72567 0.04309 0.30197
  -1  -7   9  325.10  103.99   1 0.03883-0.61093 0.99781 0.78703-0.05346 0.08562
   1   7   9  250.39   94.74   1-0.39933-0.43822 0.18866 0.75378-0.89718-0.48966
   1  -7 -10 8058.48  246.07   1 0.00002 0.14323-0.07335-0.72032 0.99730 0.67869
  -1  -7 -10 8080.22  269.16   1-0.00000 0.08031-0.26193-0.84602 0.96508 0.52705
  -1  -7 -10 8217.37  337.29   1-0.57461-0.49482-0.20984-0.79404 0.79106 0.35304
   1  -7  10 8873.22  315.22   1 0.01586-0.60944 0.99963 0.74638-0.02184 0.26736
  -1  -7  10 9361.54 3790.66   1 0.08724-0.60090 0.98891 0.79779-0.12011 0.04931
   1   7  10 7410.43  246.09   1-0.40136-0.47857 0.16064 0.74557-0.90172-0.46377
   1  -7 -11    8.80   89.16   1 0.00002 0.18172-0.07268-0.73936 0.99735 0.64831
   1   7  11   15.21   93.64   1-0.00000-0.11687 0.25506 0.85896-0.96692-0.49852
  -1  -7 -11   10.38   93.13   1-0.00000 0.11879-0.25483-0.85863 0.96698 0.49864
  -1  -7 -11   29.14  124.90   1-0.57223-0.45400-0.22788-0.83177 0.78779 0.31943
   1  -7  11   20.48  106.95   1 0.05999-0.60370 0.99477 0.76117-0.08259 0.23694
   1  -7 -12  361.06   95.48   1 0.00002 0.22021-0.06813-0.75452 0.99767 0.61821
   1   7  12  328.11  118.25   1-0.00000-0.15524 0.24486 0.86847-0.96955-0.47079
  -1  -7 -12  392.85  112.32   1-0.00000 0.15727-0.24450-0.86800 0.96964 0.47098
  -1  -7 -12  407.43  150.33   1-0.57045-0.41377-0.24050-0.86407 0.78533 0.28663
   1  -7 -12  422.34  142.01   1-0.58145-0.36209-0.14539-0.83130 0.80048 0.42167
   1  -7  12  503.43  144.64   1 0.10121-0.60088 0.98505 0.77111-0.13933 0.21054
   1  -7 -13  276.06  100.57   1 0.00002 0.25871-0.06002-0.76612 0.99819 0.58831
   1   7  13  284.41  104.39   1-0.00000-0.19362 0.23170 0.87503-0.97278-0.44365
  -1  -7 -13  256.78   96.97   1-0.00000 0.19574-0.23121-0.87442 0.97290 0.44392
  -1  -7 -13  237.44  124.08   1-0.56927-0.37415-0.24844-0.89170 0.78371 0.25468
  -1  -9   0  676.17  121.41   1 0.00004-0.38249 0.11751-0.38981 0.99307 0.83769
   1  -9   0  688.73  120.44   1 0.00006-0.31970 0.31593-0.25354 0.94878 0.91296
   1  -9   0  759.76  165.26   1-0.47047-0.79000 0.59929 0.03006 0.64768 0.61236
  -1  -9   0  733.56  157.38   1-0.47841-0.86080 0.58080 0.07375 0.65862 0.50355
  -1  -9  -1  366.00  110.02   1 0.00003-0.34400 0.05657-0.47046 0.99839 0.81260
  -1  -9   1  345.04   98.29   1 0.00005-0.42098 0.18997-0.29765 0.98178 0.85684
   1  -9  -1  354.45  109.11   1 0.00005-0.28122 0.25673-0.33243 0.96648 0.90021
   1  -9   1  393.85  102.88   1 0.00006-0.35818 0.38256-0.16722 0.92392 0.91855
  -1  -9  -1  364.34  134.24   1-0.51084-0.85486 0.49441-0.03228 0.70327 0.51784
   1  -9  -1  380.76  145.32   1-0.49946-0.78062 0.52700-0.06188 0.68760 0.62193
   1  -9   1  392.75  151.33   1-0.43626-0.79417 0.67003 0.12046 0.60060 0.59563
  -1  -9   1  357.27  144.51   1-0.43868-0.85944 0.66545 0.17806 0.60392 0.47920
   1   9   1  312.54   89.10   1-0.40064-0.05439 0.17113 0.69712-0.90011-0.71487
  -1  -9  -2 8083.73  368.35   1 0.00003-0.30552 0.00602-0.54072 0.99998 0.78375
   1  -9  -2 7953.58  355.92   1 0.00005-0.24270 0.20536-0.40356 0.97868 0.88217
  -1  -9   2 7623.44  374.51   1 0.00005-0.45949 0.27470-0.19315 0.96152 0.86692
   1  -9   2 7453.54  350.87   1 0.00007-0.39666 0.45613-0.07395 0.88991 0.91497
  -1  -9  -2 7767.59  410.65   1-0.53612-0.84175 0.40967-0.13665 0.73806 0.52226
   1  -9  -2 8896.82  464.89   1-0.52323-0.76603 0.45536-0.15314 0.72032 0.62429
   1  -9   2 8385.58  455.78   1-0.39736-0.79350 0.73677 0.20666 0.54705 0.57240
  -1  -9   2 7304.22  400.71   1-0.39239-0.85137 0.74444 0.27646 0.54020 0.44578
   1   9   2 7149.11  318.59   1-0.40010-0.09218 0.17852 0.72434-0.89891-0.68325
  -1  -9  -3  204.21  102.57   1 0.00002-0.26703-0.03529-0.60174 0.99937 0.75272
   1  -9  -3  200.13  105.31   1 0.00004-0.20422 0.16101-0.46762 0.98695 0.86001
  -1  -9   3  205.80  103.19   1 0.00006-0.49797 0.37246-0.07569 0.92804 0.86388
   1  -9   3  204.03  100.26   1 0.00008-0.43542 0.53589 0.02593 0.84428 0.89985
  -1  -9   3  186.89   62.73   1 0.00003-0.49854 0.61951 0.17216-0.78498-0.84959
  -1  -9  -3  196.74  144.04   1-0.55489-0.82216 0.32942-0.23656 0.76391 0.51777
   1  -9  -3  204.26  131.70   1-0.54207-0.74649 0.38632-0.24184 0.74626 0.61988
   1  -9   3  196.39  145.83   1-0.35422-0.78875 0.79794 0.28747 0.48765 0.54334
  -1  -9   3  236.23  120.42   1-0.34035-0.83772 0.81523 0.36690 0.46856 0.40447
   1   9   3  213.25   95.36   1-0.39992-0.13033 0.18093 0.74656-0.89850-0.65242
  -1  -9  -4  921.17  126.52   1 0.00002-0.22854-0.06836-0.65455 0.99766 0.72064
   1  -9  -4  926.04  123.69   1 0.00004-0.16573 0.12359-0.52475 0.99233 0.83496
  -1  -9   4  921.11  137.60   1 0.00007-0.53644 0.48245 0.05398 0.87592 0.84220
   1  -9   4  916.73  134.20   1 0.00008-0.47387 0.61945 0.12921 0.78502 0.87105
  -1  -9  -4 1027.25  168.96   1-0.56818-0.79706 0.25559-0.33005 0.78220 0.50571
   1  -9  -4 1009.14  168.31   1-0.55650-0.72255 0.32144-0.32638 0.76613 0.60941
   1  -9   4  906.21  180.75   1-0.30791-0.78082 0.85176 0.36094 0.42390 0.50992
  -1  -9   4  985.46  153.05   1-0.28441-0.82017 0.87509 0.44641 0.39155 0.35780
   1   9   4  897.80  114.23   1-0.40008-0.16881 0.17888 0.76432-0.89885-0.62233
  -1  -9  -5  786.29  125.69   1 0.00002-0.19005-0.09438-0.70028 0.99553 0.68809
   1  -9  -5  789.63  126.22   1 0.00004-0.12724 0.09264-0.57540 0.99570 0.80790
  -1  -9   5  805.32  139.57   1 0.00008-0.57516 0.60316 0.19496 0.79761 0.79446
   1  -9   5  798.22  136.66   1 0.00009-0.51232 0.70435 0.23382 0.70984 0.82634
  -1  -9  -5  848.94  165.02   1-0.57713-0.76748 0.18879-0.41644 0.79452 0.48738
   1  -9  -5  823.38  172.76   1-0.56720-0.69486 0.26181-0.40568 0.78085 0.59378
   1  -9   5  774.20  159.42   1-0.25947-0.77079 0.89725 0.42611 0.35721 0.47360
  -1  -9   5  846.48  157.53   1-0.22643-0.80060 0.92279 0.51377 0.31172 0.30833
   1   9   5  672.72  117.49   1-0.40052-0.20759 0.17280 0.77805-0.89984-0.59290
  -1  -9  -6 5395.44  334.81   1 0.00002-0.15156-0.11412-0.73973 0.99346 0.65560
   1  -9   6 5255.86  351.94   1 0.00009-0.55075 0.78629 0.33565 0.61785 0.76420
  -1  -9  -6 5947.12  400.49   1-0.58267-0.73462 0.13054-0.49435 0.80215 0.46469
   1  -9  -6 6043.50  404.95   1-0.57483-0.66412 0.20808-0.47907 0.79136 0.57395
   1  -9   6 5545.44  383.60   1-0.21004-0.75976 0.93395 0.48245 0.28916 0.43588
  -1  -9   6 5852.30  374.75   1-0.16823-0.78079 0.95815 0.56878 0.23160 0.25854
   1   9   6 5381.57  327.26   1-0.40120-0.24659 0.16302 0.78810-0.90136-0.56399
   1  -9  -7  164.79   82.50   1 0.00003-0.05026 0.04815-0.65930 0.99883 0.75019
   1  -9   7  158.73  124.90   1 0.00010-0.58917 0.86222 0.43130 0.50651 0.68326
   1   9   7  287.01  110.01   1-0.00001 0.11485 0.12890 0.77341-0.99165-0.62340
  -1  -9  -7  164.80  109.58   1-0.00001-0.11321-0.12948-0.77393 0.99158 0.62306
  -1  -9  -7  201.27  138.76   1-0.58580-0.69935 0.08024-0.56431 0.80646 0.43868
   1  -9  -7  240.65  135.15   1-0.58010-0.63091 0.16022-0.54656 0.79862 0.55065
   1  -9   7  201.31  119.40   1-0.16056-0.74866 0.96195 0.53011 0.22104 0.39809
  -1  -9   7  227.65  112.51   1-0.11123-0.76218 0.98192 0.61221 0.15313 0.21041
   1  -9  -8  982.03  130.11   1 0.00003-0.01177 0.03366-0.69349 0.99943 0.72036
   1   9   8  854.32  133.74   1-0.00001 0.07648 0.13822 0.80246-0.99040-0.59178
  -1  -9  -8 1186.72  167.90   1-0.58728-0.66243 0.03752-0.62669 0.80850 0.41040
   1  -9  -8 1068.31  176.84   1-0.58353-0.59593 0.11884-0.60759 0.80334 0.52505
   1  -9   8 1025.46  166.59   1-0.11179-0.73829 0.98174 0.56955 0.15391 0.36129
  -1  -9   8 1107.57  137.25   1-0.05647-0.74580 0.99537 0.64531 0.07774 0.16535
   1  -9  -9  505.34  111.77   1 0.00003 0.02672 0.02376-0.72310 0.99971 0.69021
   1   9   9  454.51  106.05   1-0.00001 0.03811 0.14318 0.82713-0.98969-0.56071
  -1  -9  -9  475.10  101.68   1-0.00001-0.03625-0.14349-0.82735 0.98965 0.56050
  -1  -9  -9  516.03  143.72   1-0.58770-0.62445 0.00185-0.68203 0.80907 0.38065
   1  -9  -9  525.33  155.93   1-0.58565-0.55965 0.08342-0.66267 0.80625 0.49764
   1  -9   9  520.37  145.72   1-0.06434-0.72922 0.99398 0.60145 0.08858 0.32631
  -1  -9   9  555.23  119.12   1-0.00456-0.73229 0.99997 0.66956 0.00628 0.12423
   1  -9 -10 4570.09  206.76   1 0.00003 0.06521 0.01807-0.74850 0.99983 0.65991
   1   9  10 4369.78  214.64   1-0.00001-0.00025 0.14420 0.84787-0.98954-0.53019
  -1  -9 -10 4591.97  209.34   1-0.00001 0.00222-0.14439-0.84795 0.98952 0.53005
  -1  -9 -10 4793.37  278.86   1-0.58748-0.58583-0.02740-0.73094 0.80877 0.35003
   1  -9 -10 4688.80  262.15   1-0.58685-0.52245 0.05365-0.71210 0.80791 0.46897
   1  -9  10 4962.39  245.32   1-0.01860-0.72187 0.99949 0.62661 0.02561 0.29367
  -1  -9  10 5224.21  239.60   1 0.04418-0.72193 0.99716 0.68641-0.06082 0.08745
  -1 -11   0 1789.25  177.61   1 0.00005-0.46051 0.23361-0.39336 0.97232 0.79573
   1 -11   0 1708.93  160.70   1 0.00006-0.39773 0.38527-0.30384 0.92280 0.86572
   1 -11   0 1912.55  212.48   1-0.43883-0.83636 0.66515-0.02365 0.60414 0.54766
  -1 -11   0 1787.53  205.21   1-0.44122-0.90161 0.66056 0.03392 0.60743 0.43120
  -1 -11  -1 1613.81  165.97   1 0.00004-0.42202 0.17924-0.46744 0.98380 0.77678
  -1 -11   1 1629.72  174.60   1 0.00006-0.49904 0.29615-0.31103 0.95513 0.80883
   1 -11  -1 1639.22  167.36   1 0.00006-0.35925 0.33449-0.37432 0.94239 0.85487
   1 -11   1 1584.54  172.33   1 0.00007-0.43621 0.44167-0.22774 0.89717 0.87054
  -1 -11  -1 1812.17  209.67   1-0.47253-0.89455 0.59456-0.05172 0.65053 0.44396
   1 -11  -1 1937.17  230.02   1-0.46644-0.82558 0.60834-0.10012 0.64214 0.55531
  -1 -11   1 1780.03  207.69   1-0.40515-0.90369 0.72439 0.11713 0.55776 0.41185
   1 -11   1 1883.68  229.00   1-0.40761-0.84330 0.72039 0.05099 0.56115 0.53501
  -1 -11  -2  614.36  119.99   1 0.00004-0.38353 0.13270-0.53369 0.99115 0.75370
   1 -11  -2  649.35  128.56   1 0.00005-0.32077 0.28943-0.43907 0.95719 0.83923
  -1 -11   2  633.18  127.53   1 0.00006-0.53752 0.36767-0.21981 0.92995 0.81409
   1 -11   2  655.77  140.51   1 0.00007-0.47469 0.50335-0.14637 0.86407 0.86789
  -1 -11  -2  738.85  161.35   1-0.49885-0.88249 0.52866-0.13728 0.68677 0.44983
   1 -11  -2  709.55  173.24   1-0.49024-0.81101 0.55151-0.17662 0.67490 0.55772
   1 -11   2  740.85  164.61   1-0.37274-0.84683 0.77313 0.12338 0.51315 0.51735
  -1 -11   2  654.38  165.78   1-0.36429-0.90122 0.78471 0.19709 0.50151 0.38593
  -1 -11  -3 1602.35  172.24   1 0.00004-0.34505 0.09338-0.59271 0.99563 0.72775
   1 -11  -3 1668.59  176.62   1 0.00005-0.28229 0.25002-0.49817 0.96823 0.81983
  -1 -11   3 1547.58  185.39   1 0.00007-0.57600 0.44799-0.11980 0.89403 0.80861
   1 -11   3 1609.78  189.91   1 0.00008-0.51354 0.56994-0.05955 0.82168 0.85599
  -1 -11  -3 1675.34  205.20   1-0.52043-0.86568 0.46457-0.22099 0.71646 0.44916
   1 -11  -3 1859.46  237.36   1-0.51035-0.79275 0.49588-0.25189 0.70259 0.55506
   1 -11   3 1769.75  239.29   1-0.33475-0.84722 0.82192 0.19182 0.46085 0.49538
  -1 -11   3 1633.70  208.65   1-0.31946-0.89478 0.83935 0.27139 0.43979 0.35455
  -1 -11  -4 2199.28  204.98   1 0.00003-0.30656 0.06065-0.64515 0.99815 0.69985
   1 -11  -4 2189.68  202.11   1 0.00005-0.24375 0.21641-0.55158 0.97630 0.79771
   1 -11   4 2369.37  229.70   1 0.00008-0.55199 0.63981 0.03002 0.76852 0.83330
  -1 -11  -4 2397.40  248.73   1-0.53766-0.84454 0.40375-0.30147 0.74019 0.44255
   1 -11  -4 2465.69  272.33   1-0.52701-0.77105 0.44253-0.32487 0.72554 0.54765
   1 -11   4 2231.21  250.25   1-0.29417-0.84503 0.86571 0.25526 0.40498 0.46984
  -1 -11   4 2327.42  241.76   1-0.27151-0.88524 0.88688 0.33858 0.37378 0.31890
  -1 -11  -5 1617.14  157.07   1 0.00003-0.26807 0.03391-0.69159 0.99942 0.67069
   1 -11  -5 1598.19  152.44   1 0.00005-0.20526 0.18769-0.60001 0.98222 0.77320
  -1 -11  -5 1843.96  197.12   1-0.55113-0.81964 0.34720-0.37768 0.75874 0.43074
   1 -11  -5 1847.01  213.23   1-0.54058-0.74624 0.39231-0.39476 0.74421 0.53598
   1 -11   5 1642.34  193.88   1-0.25158-0.84086 0.90373 0.31296 0.34635 0.44158
  -1 -11   5 1811.88  180.38   1-0.22153-0.87366 0.92623 0.39758 0.30498 0.28043
  -2   0   0 5493.55  260.32   1 0.00010-0.06259 0.84605 0.90839 0.53308 0.41340
   2   0   0 6325.99  280.29   1 0.00010 0.06272 0.92196 0.85966 0.38727 0.50699
   2   0   0 6409.04  280.62   1 0.00010 0.06266-0.84567-0.90808-0.53370-0.41406
  -2   0   0 5760.73  267.01   1 0.00010-0.06248-0.92147-0.85905-0.38844-0.50805
   2   0   0 6132.72  294.83   1-0.36699-0.30414 0.78106 0.71893 0.50523 0.62500
   2   0  -1  172.19   55.78   1 0.00009 0.10122 0.80205 0.72000 0.59725 0.68654
  -2   0  -1  172.08   56.90   1 0.00010-0.02408 0.93708 0.97970 0.34909 0.19901
   2   0   1  178.25   55.97   1 0.00010 0.02429 0.98072 0.93810 0.19540 0.34548
   2   0  -1  171.81   54.84   1 0.00009 0.10107-0.66175-0.74398-0.74971-0.66050
   2   0   1  164.32   53.73   1 0.00010 0.02426-0.93702-0.97965-0.34925-0.19920
  -2   0  -1  170.69   54.62   1 0.00010-0.02396-0.98065-0.93802-0.19574-0.34574
  -2   0   1  152.34   76.31   1-0.58769-0.68883 0.00595 0.08783 0.80906 0.71957
   2   0  -1  166.49   64.14   1-0.56023-0.45901 0.30215 0.22031 0.77126 0.86067
   2   0   1  188.72   61.58   1-0.15629-0.13183 0.96398 0.92151 0.21516 0.36528
  -2   0   222909.85  741.59   1 0.00006-0.13972 0.37288 0.47450 0.92787 0.86909
   2   0  -224429.00  768.79   1 0.00008 0.13982 0.61767 0.51590 0.78643 0.84515
  -2   0  -224231.72  763.64   1 0.00010 0.01435 0.97633 0.99925 0.21626 0.03583
   2   0   223602.27  756.65   1 0.00010-0.01411 0.99939 0.97645 0.03487 0.21525
   2   0   223066.48  727.54   1 0.00010-0.01415-0.97643-0.99927-0.21579-0.03532
  -2   0  -223264.77  747.57   1 0.00010 0.01446-0.99940-0.97654-0.03441-0.21481
  -2   0   221630.50  775.94   1-0.52170-0.66126-0.46040-0.35856 0.71822 0.65890
   2   0  -222765.21  769.75   1-0.57946-0.43989-0.16682-0.26852 0.79774 0.85696
   2   0   223321.61  753.37   1-0.02350-0.03743 0.99919 0.97637 0.03235 0.21280
   2   0  -3   35.58   55.29   1 0.00007 0.17834 0.40832 0.28699 0.91283 0.94118
  -2   0  -3   10.68   48.21   1 0.00010 0.05273 0.99186 0.99511 0.12729-0.08343
   2   0   3   -3.47   51.06   1 0.00009-0.05249 0.99529 0.99209-0.09686 0.11400
   2   0   3   21.23   48.72   1 0.00010-0.05269-0.99196-0.99504-0.12652 0.08427
  -2   0  -3   21.58   49.66   1 0.00009 0.05299-0.99526-0.99212 0.09723-0.11348
   2   0   3   12.26   45.77   1 0.05966 0.00733 0.99483 0.99166-0.08213 0.12864
   2   0  -4   35.39   41.38   1 0.00005 0.21681 0.22341 0.08240 0.97472 0.97272
  -2   0  -4   17.54   49.52   1 0.00010 0.09115 0.99752 0.98109 0.07034-0.17073
   2   0  -4  164.36   50.03   1-0.00000 0.21609 0.24863 0.10742-0.96859-0.97044
  -2   0  -4    1.73   49.92   1 0.00009 0.09144-0.97858-0.99518 0.20585-0.03524
  -2   0   4   78.45   49.43   1-0.00000-0.21632-0.24738-0.10631 0.96891 0.97051
  -2   0   4   44.90   64.23   1-0.35935-0.57587-0.79127-0.65002 0.49471 0.49581
   2   0  -4   20.00   53.57   1-0.49747-0.28095-0.53242-0.67368 0.68486 0.68352
   2   0  -5   74.49   43.71   1 0.00004 0.25529 0.08539-0.07531 0.99634 0.96392
  -2   0  -5   86.84   59.91   1 0.00010 0.12956 0.99934 0.96323 0.03607-0.23535
   2   0  -5   57.29   48.52   1 0.00001 0.25448 0.46239 0.30146-0.88667-0.91888
   2   0   5  112.08   60.67   1 0.00010-0.12955-0.99938-0.96292-0.03497 0.23661
  -2   0  -5   82.60   56.71   1 0.00008 0.12988-0.95485-0.99119 0.29706 0.02560
  -2   0   5   55.04   48.54   1 0.00001-0.25477-0.46152-0.30074 0.88712 0.91904
  -2   0   5   67.11   71.99   1-0.30659-0.56159-0.85314-0.69212 0.42208 0.45341
   2   0  -5   63.08   63.77   1-0.47340-0.21841-0.59256-0.75353 0.65173 0.62006
  -2   0  -5   72.39   56.21   1-0.01932 0.10978 0.99945 0.96332 0.02659-0.24485
   2   0   5   77.90   58.48   1-0.16495-0.29413 0.91402 0.95062-0.37060-0.09897
   2   0  -6 8054.91  395.66   1 0.00003 0.29377-0.00799-0.18841 0.99996 0.93712
  -2   0  -6 8775.64  440.21   1 0.00010 0.16798 0.99983 0.94403 0.01793-0.28384
   2   0   6 8425.99  429.58   1 0.00008-0.16752 0.92729 0.98319-0.37432-0.07254
   2   0  -6 8565.21  437.54   1 0.00003 0.29287 0.61242 0.43178-0.79052-0.85310
   2   0   6 8436.81  424.11   1 0.00010-0.16798-0.99985-0.94362-0.01676 0.28522
  -2   0  -6 8163.52  416.80   1 0.00008 0.16855-0.92695-0.98294 0.37516 0.07360
  -2   0   6 7995.09  441.12   1 0.00003-0.29323-0.61190-0.43141 0.79093 0.85316
   2   0  -6 8412.43  448.40   1-0.45935-0.16587-0.62376-0.80445 0.63238 0.57038
  -2   0  -6 7746.53  392.63   1-0.00916 0.15832 0.99987 0.94409 0.01261-0.28917
   2   0   6 8349.45  424.93   1-0.21369-0.38123 0.85078 0.90717-0.48010-0.17804
   2   0  -7  433.50   63.34   1 0.00002 0.33226-0.06720-0.26735 0.99773 0.90450
  -2   0  -7  445.63   84.56   1 0.00009 0.20640 0.99993 0.92444 0.01152-0.32060
   2   0   7  437.72   89.94   1 0.00007-0.20593 0.89663 0.97229-0.44276-0.11064
   2   0  -7  427.38   73.92   1 0.00004 0.33126 0.71830 0.51795-0.69572-0.78866
   2   0   7  458.84   85.21   1 0.00009-0.20641-0.99994-0.92393-0.01031 0.32207
  -2   0  -7  411.99   86.23   1 0.00007 0.20702-0.89625-0.97194 0.44354 0.11166
  -2   0   7  398.97   79.75   1 0.00004-0.33170-0.71805-0.51785 0.69599 0.78854
   2   0  -7  411.68   96.61   1-0.45226-0.12020-0.63859-0.83902 0.62262 0.53065
  -2   0  -7  403.72   76.87   1-0.00566 0.20021 0.99995 0.92451 0.00779-0.32432
   2   0   7  466.03   80.79   1-0.25629-0.46202 0.77636 0.85280-0.57581-0.24344
   2   0  -8  173.75   53.97   1 0.00002 0.37075-0.10220-0.32205 0.99476 0.87110
  -2   0  -8  378.34   86.30   1 0.00010 0.24482 0.99990 0.90473 0.01389-0.34858
   2   0   8  253.36   82.51   1 0.00006-0.24431 0.86403 0.95939-0.50343-0.14095
   2   0  -8  179.02   62.50   1 0.00005 0.36966 0.79500 0.57499-0.60660-0.72987
   2   0   8  165.53   74.43   1 0.00010-0.24484-0.99992-0.90413-0.01266 0.35012
  -2   0  -8  157.11   77.03   1 0.00006 0.24549-0.86352-0.95892 0.50430 0.14210
  -2   0   8  227.58   71.67   1 0.00005-0.37016-0.79483-0.57492 0.60681 0.72968
   2   0  -8  158.38   75.83   1-0.44946-0.07889-0.64428-0.86443 0.61877 0.49651
  -2   0  -8  167.38   72.79   1-0.00666 0.23760 0.99993 0.90484 0.00918-0.35327
   2   0   8  175.33   65.60   1-0.29257-0.53662 0.69450 0.79075-0.65731-0.29451
   2   0  -8  199.47   61.04   1-0.38858-0.01938 0.29464 0.07385-0.87303-0.99708
  -2   0  -9   51.00   61.41   1 0.00010 0.28324 0.99973 0.88488 0.02303-0.36980
   2   0  -9   68.30   57.80   1 0.00006 0.40805 0.85196 0.61224-0.52360-0.67723
   2   0   9   61.66   69.17   1 0.00006-0.28269 0.82980 0.94487-0.55805-0.16522
   2   0   9   58.29   71.24   1 0.00010-0.28327-0.99976-0.88420-0.02179 0.37139
  -2   0   9   61.23   63.78   1 0.00006-0.40863-0.85194-0.61232 0.52363 0.67681
  -2   0  -9   98.24   65.37   1 0.00006 0.28397-0.82916-0.94426 0.55900 0.16649
   2   0  -9   45.12   75.11   1-0.44979-0.04072-0.64361-0.88348 0.61922 0.46668
   2   0   9   62.75   54.23   1-0.32329-0.60567 0.60657 0.72263-0.72632-0.33310
   2   0  -9   60.50   50.05   1-0.36858 0.03894 0.42239 0.18178-0.82808-0.98256
  -2   0 -10 8820.23  459.52   1 0.00010 0.32166 0.99929 0.86475 0.03754-0.38564
   2   0 -10 8630.95  445.59   1 0.00007 0.44643 0.89518 0.63575-0.44570-0.62968
   2   0  10 8743.10  452.56   1 0.00005-0.32107 0.79411 0.92889-0.60777-0.18457
   2   0  10 8694.69  452.48   1 0.00010-0.32170-0.99934-0.86401-0.03630 0.38728
  -2   0  10 8053.35  436.01   1 0.00007-0.44710-0.89526-0.63593 0.44553 0.62903
  -2   0 -10 8662.75  441.89   1 0.00005 0.32244-0.79333-0.92814 0.60878 0.18595
  -2   0 -10 8208.82  449.57   1-0.29527 0.02744-0.86462-0.99949 0.40649-0.01634
   2   0 -10 8322.25  450.65   1-0.45233-0.00474-0.63844-0.89804 0.62272 0.43988
   2   0  10 8544.52  432.81   1-0.34890-0.66961 0.51363 0.64950-0.78386-0.36021
   2   0  11  220.94   87.82   1 0.00005-0.35941 0.75700 0.91154-0.65340-0.19978
  -2   0  11  213.07   85.32   1 0.00008-0.48557-0.92849-0.64945 0.37135 0.58516
  -2   0 -11  199.21   76.05   1 0.00005 0.36091-0.75610-0.91061 0.65445 0.20130
  -2   0 -11  214.11  115.35   1-0.31506 0.04616-0.84415-0.99874 0.43374-0.01937
   2   0 -11  210.49   98.34   1-0.45624 0.02962-0.63033-0.90958 0.62810 0.41445
   2   0  11  203.09   69.26   1-0.36976-0.72880 0.41613 0.57182-0.83072-0.37664
   2   0  12  420.58   92.77   1 0.00004-0.39778 0.71850 0.89275-0.69551-0.21153
  -2   0  12  394.38   93.78   1 0.00008-0.52382-0.95391-0.65469 0.30008 0.54496
  -2   0 -12  381.36   84.83   1 0.00004 0.39938-0.71744-0.89165 0.69662 0.21315
  -2   0 -12  410.29  117.93   1-0.33366 0.06597-0.82320-0.99752 0.45934-0.02417
   2   0 -12  387.45  115.53   1-0.46152 0.06282-0.61911-0.91807 0.63537 0.39138
   2   0  12  491.68   84.88   1-0.38607-0.78344 0.31401 0.48951-0.86737-0.38286
   2   0  13  120.22   85.34   1 0.00004-0.43616 0.67853 0.87250-0.73456-0.22021
  -2   0 -13  123.97   77.22   1 0.00004 0.43786-0.67729-0.87122 0.73571 0.22192
  -2   0 -13  122.38  103.51   1-0.35126 0.08687-0.80171-0.99576 0.48358-0.03022
   2   0 -13  139.29   90.99   1-0.46764 0.09518-0.60567-0.92434 0.64379 0.36948
   2   0  13  130.55   70.06   1-0.39786-0.83356 0.20665 0.40197-0.89386-0.37892
   2   0  14 4758.63 1981.55   1 0.00003-0.47454 0.63700 0.85068-0.77085-0.22614
  -2   0 -14 4578.80  250.28   1-0.36805 0.10860-0.77961-0.99338 0.50669-0.03740
   2   0 -14 4839.66  233.33   1-0.47437 0.12693-0.59031-0.92870 0.65306 0.34842
   2   0  15  389.37   95.65   1 0.00003-0.51291 0.59377 0.82717-0.80462-0.22955
  -2   0 -15  373.67  128.28   1-0.38412 0.13104-0.75683-0.99032 0.52881-0.04557
   2   0 -15  359.87  118.46   1-0.48155 0.15823-0.57323-0.93133 0.66295 0.32797
  -2   2   040455.97 1158.58   1 0.00006 0.01528 0.38190 0.56378 0.92420 0.82578
   2  -2   038191.19 1154.39   1 0.00008-0.01521 0.56467 0.38279 0.82531 0.92370
  -2  -2   040305.29  936.36   1 0.00008-0.14078 0.97034 0.91311-0.24171-0.38261
   2   2   039754.63 1198.53   1 0.00006 0.14093 0.86409 0.92130-0.50332-0.36240
   2   2   040369.69  935.83   1 0.00008 0.14082-0.97053-0.91337 0.24096 0.38199
  -2  -2   036947.17 1146.12   1 0.00006-0.14041-0.86455-0.92176 0.50254 0.36143
   2   2   039972.12  985.56   1-0.39056-0.25000-0.74722-0.69007 0.53768 0.67918
   2  -2   036154.26 1278.70   1-0.49783-0.51296 0.53145 0.34968 0.68536 0.78395
   2   2   041467.85  971.67   1-0.16165-0.02056 0.91758 0.97471-0.36319-0.22248
  -2   2   141580.94  983.46   1 0.00005-0.02319 0.21611 0.41765 0.97636 0.90830
   2  -2  -139487.19 1178.01   1 0.00007 0.02333 0.41968 0.21811 0.90766 0.97564
  -2   2  -141413.41 1043.37   1 0.00008 0.05383 0.53175 0.69391 0.84689 0.71803
   2  -2   137567.36 1182.83   1 0.00009-0.05365 0.70483 0.54267 0.70936 0.83822
  -2  -2   141843.48  983.85   1 0.00009-0.17915 0.99140 0.95371-0.13080-0.24151
   2   2   141026.76  983.00   1 0.00006 0.10256 0.85550 0.93241-0.51779-0.34652
   2   2  -140445.77  951.00   1 0.00007 0.17931 0.86566 0.90315-0.50062-0.39006
  -2   2  -140546.67  964.73   1 0.00009 0.05440-0.70482-0.54274-0.70938-0.83813
   2   2  -138994.24 1157.77   1 0.00009 0.17928-0.99171-0.95428 0.12849 0.23915
   2   2   141005.38  951.86   1 0.00008 0.10236-0.95545-0.87854 0.29514 0.46655
  -2  -2   138396.01 1158.37   1 0.00007-0.17888-0.86634-0.90385 0.49944 0.38865
   2   2   140942.65 1000.88   1-0.31289-0.21090-0.84648-0.76968 0.43075 0.60258
  -2  -2  -139880.20 1046.37   1-0.48886-0.59112-0.55504-0.63190 0.67301 0.50127
   2   2  -141770.24 1070.47   1-0.57537-0.39616-0.20373-0.16618 0.79210 0.90301
   2  -2   138142.20 1226.74   1-0.40707-0.46056 0.72127 0.55915 0.56040 0.68936
   2   2  -141935.35  976.33   1-0.13602 0.04346 0.94239 0.97978-0.30560-0.19529
   2   2   141712.53  974.33   1-0.18713-0.08440 0.88781 0.96474-0.42043-0.24929
   2  -2  -2 2758.71  161.30   1 0.00005 0.06180 0.28503 0.06377 0.95851 0.99604
  -2   2  -2 2693.14  166.64   1 0.00008 0.09229 0.65496 0.79741 0.75566 0.59633
  -2  -2   2 2941.20  186.75   1 0.00010-0.21751 0.99329 0.97542 0.11557 0.03518
   2   2  -2 2790.14  181.38   1 0.00006 0.21768 0.85043 0.86821-0.52608-0.44588
   2   2   2 2692.70  169.67   1 0.00006 0.06418 0.84288 0.93950-0.53810-0.33646
  -2   2  -2 2642.69  169.44   1 0.00010 0.09281-0.82413-0.68185-0.56639-0.72557
   2   2  -2 2627.96  169.43   1 0.00010 0.21786-0.99269-0.97513-0.12063-0.04044
   2   2   2 2764.89  162.50   1 0.00008 0.06391-0.94753-0.85089 0.31966 0.52144
  -2  -2  -2 2426.93  167.06   1 0.00006-0.06345-0.84307-0.93970 0.53779 0.33605
  -2  -2  -2 2876.59  203.72   1-0.43166-0.49520-0.67861-0.77521 0.59426 0.39218
   2  -2  -2 2651.69  196.90   1-0.58489-0.52334 0.09763-0.12347 0.80521 0.84312
  -2   2  -2 2658.34  186.57   1-0.41281-0.32092 0.71176 0.85422 0.56831 0.40902
   2   2  -2 2723.87  185.79   1-0.38187-0.16430 0.76012 0.77832 0.52572 0.60598
   2  -2   2 2720.10  191.56   1-0.30459-0.39647 0.85521 0.71274 0.41932 0.57861
   2   2  -2 2823.87  167.98   1-0.11081 0.10703 0.96215 0.97977-0.24896-0.16909
  -2  -2  -2 2996.53  165.88   1-0.12545-0.18984 0.95122 0.85452-0.28184-0.48346
   2   2   2 2767.86  165.45   1-0.21191-0.14754 0.85347 0.95018-0.47610-0.27454
   2  -2  -327761.59  889.29   1 0.00004 0.10028 0.17092-0.07003 0.98528 0.99249
  -2  -2   328370.67  901.39   1 0.00009-0.25623 0.69895 0.70089 0.71516 0.66565
  -2   2  -330488.18  940.40   1 0.00009 0.13082 0.74795 0.87064 0.66375 0.47418
  -2  -2  -327640.13  848.91   1 0.00008-0.02567 0.94493 0.82860-0.32725-0.55924
   2   2   330521.50  953.57   1 0.00006 0.02580 0.82745 0.94378-0.56153-0.32954
   2   2  -328980.31  920.68   1 0.00005 0.25604 0.75701 0.75508-0.65340-0.60356
   2   2  -329013.67  943.24   1 0.00009 0.25637-0.69424-0.69662-0.71974-0.67006
   2  -2   327847.78  881.92   1 0.00009-0.13104-0.74848-0.87096-0.66314-0.47354
  -2   2  -328415.05  896.62   1 0.00010 0.13120-0.91221-0.78969-0.40971-0.59930
   2   2   329561.47  899.31   1 0.00008 0.02545-0.94499-0.82861 0.32709 0.55924
  -2  -2  -327170.12  863.64   1 0.00006-0.02498-0.82754-0.94388 0.56139 0.32933
  -2  -2  -327815.16  924.13   1-0.40282-0.42785-0.72814-0.84447 0.55456 0.32219
   2  -2  -325617.05  893.38   1-0.58597-0.48602-0.07655-0.31732 0.80670 0.81429
  -2   2  -327104.18  874.15   1-0.34209-0.21182 0.81312 0.93594 0.47095 0.28132
   2  -2   326730.74  900.26   1-0.20682-0.33710 0.93602 0.81322 0.28473 0.47436
   2   2  -330437.86 1077.58   1-0.17421 0.08174 0.95505 0.95359 0.23984 0.28977
  -2  -2  -329994.23  898.82   1-0.13806-0.16407 0.94060 0.82409-0.31017-0.54216
   2  -2  -435981.37  877.98   1 0.00004 0.13876 0.07950-0.18115 0.99683 0.97361
  -2   2  -436565.48  898.01   1 0.00009 0.16925 0.81428 0.91727 0.58046 0.36050
   2  -2   433756.63  857.24   1 0.00010-0.16914 0.96706 0.86396 0.25452 0.47429
  -2  -2  -436111.62  884.75   1 0.00008 0.01270 0.94612 0.81008-0.32381-0.58617
   2   2   436294.28  911.86   1 0.00006-0.01256 0.80981 0.94585-0.58668-0.32433
   2  -2  -436794.92  861.35   1-0.00000 0.13783 0.25374-0.00695-0.96727-0.99043
   2  -2   436653.42  898.15   1 0.00009-0.16947-0.81494-0.91762-0.57953-0.35950
  -2   2  -433573.75  877.79   1 0.00010 0.16962-0.96762-0.86489-0.25239-0.47242
   2   2   436821.92  882.87   1 0.00008-0.01299-0.94615-0.81003 0.32370 0.58623
  -2  -2  -435679.48  925.19   1 0.00006 0.01349-0.80981-0.94585 0.58668 0.32431
  -2   2   435320.05  861.15   1-0.00000-0.13824-0.25349 0.00705 0.96733 0.99037
  -2  -2  -435277.26  971.71   1-0.38885-0.37538-0.74980-0.88585 0.53533 0.27267
   2  -2  -434015.47  925.01   1-0.57503-0.43666-0.20645-0.46711 0.79164 0.76884
   2  -2   435841.54  972.82   1-0.12129-0.28996 0.97846 0.87531 0.16699 0.38695
   2   2  -434787.92  857.16   1-0.08548 0.20887 0.98936 0.96825 0.11768 0.13727
  -2  -2  -438372.44  884.05   1-0.14477-0.13243 0.93447 0.79818-0.32526-0.58767
   2  -2  -527846.89  728.35   1 0.00003 0.17725 0.01001-0.27035 0.99994 0.94630
  -2   2  -529131.98  749.24   1 0.00010 0.20768 0.85952 0.94280 0.51108 0.26073
   2  -2   527766.27  809.34   1 0.00010-0.20757 0.99424 0.91068 0.10711 0.35717
  -2  -2  -527929.18  701.03   1 0.00008 0.05107 0.94973 0.79400-0.31303-0.60576
   2   2   528229.36  746.50   1 0.00005-0.05094 0.79027 0.94603-0.61274-0.32003
   2  -2  -528599.90  707.61   1 0.00000 0.17622 0.37744 0.09702-0.92603-0.97955
   2  -2   528625.91  736.28   1 0.00010-0.20789-0.86024-0.94312-0.50987-0.25942
  -2   2  -527271.76  730.12   1 0.00010 0.20816-0.99451-0.91146-0.10461-0.35482
   2   2   527579.94  705.96   1 0.00008-0.05144-0.94976-0.79391 0.31295 0.60585
  -2  -2  -527626.43  751.27   1 0.00005 0.05196-0.79018-0.94593 0.61287 0.32018
  -2   2   526597.92  690.92   1 0.00000-0.17671-0.37722-0.09696 0.92612 0.97947
   2  -2  -527542.83  761.64   1-0.56080-0.38398-0.29906-0.57941 0.77204 0.71891
  -2   2  -525505.77  706.16   1-0.24011-0.03305 0.91272 0.99622 0.33056 0.08026
   2  -2   527960.16  756.14   1-0.04887-0.25593 0.99653 0.91303 0.06728 0.31758
   2   2  -526100.96  709.75   1-0.04491 0.28783 0.99707 0.95631 0.06183 0.05109
  -2  -2  -529230.73  722.34   1-0.14689-0.09618 0.93247 0.77639-0.33002-0.62286
   2   2   529427.53  776.47   1-0.27962-0.33018 0.72604 0.88225-0.62822-0.33557
   2  -2  -6 1556.90  123.73   1 0.00002 0.21573-0.04042-0.34051 0.99918 0.91515
   2   2  -6 1350.70  131.75   1 0.00009 0.37188 0.67736 0.61659 0.73564 0.69391
  -2   2  -6 1723.85  145.51   1 0.00010 0.24611 0.88953 0.95310 0.45686 0.17611
   2   2  -6 1195.83  150.27   1 0.00010 0.37153 0.93639 0.87529 0.35094 0.30956
   2  -2   6 1690.08  152.34   1 0.00009-0.24599 0.99961 0.93573-0.02765 0.25274
  -2  -2  -6 1563.95  135.28   1 0.00008 0.08945 0.95489 0.77945-0.29695-0.62004
   2  -2  -6 1628.25  127.07   1 0.00001 0.21460 0.48322 0.18309-0.87549-0.95938
   2  -2   6 1697.44  145.35   1 0.00010-0.24626-0.89017-0.95332-0.45561-0.17473
  -2  -2   6 1673.13  140.29   1 0.00010-0.37144-0.94780-0.88611-0.31884-0.27718
  -2   2  -6 1576.03  143.36   1 0.00009 0.24659-0.99953-0.93626 0.03039-0.25020
  -2  -2  -6 1601.48  140.29   1 0.00005 0.09044-0.76882-0.94428 0.63945 0.31645
  -2   2   6 1531.04  131.82   1 0.00001-0.21517-0.48305-0.18309 0.87558 0.95925
   2   2  -6 1617.33  147.00   1-0.29254 0.07904-0.86730-0.92857 0.40274 0.36262
  -2   2   6 1484.74  165.49   1-0.41965-0.63512-0.70008-0.39986 0.57773 0.66085
   2  -2  -6 1677.87  162.56   1-0.54746-0.33221-0.36362-0.66365 0.75369 0.67022
  -2   2  -6 1513.86  146.65   1-0.20775 0.03768 0.93542 0.99927 0.28601 0.00538
   2   2  -6 1544.68  132.26   1-0.02615 0.34497 0.99900 0.93859 0.03601-0.00506
   2  -2   6 2013.68  167.35   1 0.01219-0.23324 0.99978 0.93594-0.01679 0.26384
  -2  -2  -6 1673.48  131.82   1-0.14528-0.05622 0.93399 0.75812-0.32640-0.64968
   2   2   6 1662.36  136.85   1-0.29943-0.38832 0.67659 0.85261-0.67272-0.34964
   2  -2  -6 1705.54  132.51   1-0.39793-0.18390 0.20579-0.09477-0.89403-0.97836
   2  -2  -723002.75  756.62   1 0.00002 0.25422-0.07543-0.39523 0.99715 0.88270
   2   2  -723151.80  747.50   1 0.00005 0.41033 0.25224 0.17176 0.96766 0.89561
  -2   2  -724600.55  831.09   1 0.00010 0.28465 0.90864 0.95266 0.41757 0.10674
   2   2  -723733.72  917.03   1 0.00010 0.40990 0.99010 0.90952 0.14030 0.06894
   2  -2   724702.11  844.40   1 0.00009-0.28411 0.98890 0.94495-0.14857 0.16226
  -2  -2  -723417.93  780.78   1 0.00008 0.12782 0.96092 0.76578-0.27681-0.63026
   2  -2  -723463.39  781.34   1 0.00003 0.25298 0.57310 0.25326-0.81948-0.93373
   2  -2   723584.14  797.11   1 0.00010-0.28468-0.90958-0.95294-0.41551-0.10419
  -2  -2   724946.08  833.32   1 0.00010-0.40981-0.99172-0.91040-0.12840-0.05660
  -2   2  -722559.66  767.84   1 0.00009 0.28507-0.98865-0.94495 0.15021-0.16057
   2   2   723238.16  770.42   1 0.00008-0.12835-0.96095-0.76561 0.27671 0.63036
  -2  -2  -722811.53  798.39   1 0.00005 0.12892-0.74587-0.94104 0.66608 0.31276
  -2   2   722088.28  739.65   1 0.00003-0.25364-0.57301-0.25334 0.81954 0.93352
   2   2  -723372.04  805.49   1-0.31251 0.09759-0.84689-0.92790 0.43023 0.35982
  -2   2   721205.94  785.62   1-0.37811-0.63208-0.76555-0.44560 0.52054 0.63395
   2  -2  -722720.78  801.48   1-0.53668-0.28286-0.40753-0.72750 0.73883 0.62508
  -2   2  -721867.79  749.93   1-0.18479 0.09904 0.94928 0.99347 0.25439-0.05657
   2   2  -721409.50  731.10   1-0.01887 0.39064 0.99948 0.91942 0.02599-0.04541
   2  -2   725251.19  876.54   1 0.06416-0.21967 0.99402 0.94983-0.08833 0.22263
   2  -2   725156.75  851.86   1-0.11591-0.40029 0.95851 0.91497-0.26041 0.05086
  -2  -2  -724415.94  793.13   1-0.14056-0.01313 0.93835 0.74269-0.31579-0.66950
   2   2   724052.43  789.16   1-0.31776-0.44498 0.62397 0.81981-0.71391-0.36040
   2  -2  -724799.89  807.86   1-0.38956-0.13719 0.28678-0.03360-0.87521-0.98997
   2  -2  -820996.49  789.45   1 0.00002 0.29271-0.09781-0.43732 0.99520 0.85033
   2   2  -821785.59  760.26   1 0.00004 0.44880 0.08896-0.01121 0.99603 0.89355
  -2   2  -822468.79  814.55   1 0.00010 0.32308 0.92077 0.94510 0.39010 0.04893
   2   2  -821772.02  778.88   1 0.00010 0.44828 0.99394 0.89385 0.10984 0.00809
  -2  -2  -821106.80  758.43   1 0.00008 0.16620 0.96734 0.75250-0.25344-0.63726
   2  -2   822249.38  836.60   1 0.00008-0.32249 0.96689 0.94265-0.25517 0.08602
   2   2   821591.42  799.17   1 0.00004-0.16604 0.72184 0.93671-0.69205-0.30821
   2  -2  -821260.56  764.16   1 0.00004 0.29136 0.64943 0.30987-0.76041-0.90503
   2  -2   822118.74  807.79   1 0.00010-0.32310-0.92167-0.94523-0.38797-0.04623
  -2  -2   822005.88  795.06   1 0.00010-0.44824-0.99499-0.89390-0.09995 0.00224
   2   2   820766.93  740.76   1 0.00008-0.16680-0.96737-0.75230 0.25332 0.63734
  -2   2  -821001.14  756.96   1 0.00008 0.32352-0.96642-0.94246 0.25696-0.08420
  -2  -2  -821085.21  788.84   1 0.00004 0.16739-0.72137-0.93624 0.69254 0.30890
  -2   2   820261.69  732.68   1 0.00004-0.29211-0.64942-0.31004 0.76042 0.90473
   2   2  -821482.41  813.32   1-0.33029 0.11835-0.82713-0.92776 0.45471 0.35389
  -2   2   820224.63  841.88   1-0.33950-0.63199-0.81625-0.47658 0.46739 0.61110
   2  -2  -820136.71  773.40   1-0.52852-0.23623-0.43729-0.77697 0.72761 0.58353
  -2   2  -819604.20  726.45   1-0.16912 0.15310 0.95769 0.98223 0.23283-0.10847
   2   2  -819582.36  728.03   1-0.01835 0.42955 0.99951 0.89979 0.02527-0.07647
   2  -2   821715.02  856.73   1 0.10901-0.21321 0.98264 0.95810-0.15007 0.19123
  -2  -2  -822381.44  780.57   1-0.13294 0.03284 0.94504 0.72973-0.29868-0.68294
   2   2   822278.01  803.15   1-0.33458-0.50013 0.56831 0.78397-0.75170-0.36777
   2  -2  -822823.90  782.21   1-0.37862-0.08792 0.36478 0.02458-0.85063-0.99582
   2   2  -822077.91  766.97   1-0.39363 0.05408 0.25089 0.14950-0.88436-0.98728
   2  -2  -916683.75  792.49   1 0.00002 0.33121-0.10996-0.46917 0.99393 0.81863
   2   2  -919207.68  712.75   1 0.00003 0.48729 0.01549-0.10439 0.99988 0.86697
  -2   2  -919180.86  734.65   1 0.00010 0.36152 0.92772 0.93236 0.37327 0.00174
  -2  -2  -917035.18  663.85   1 0.00008 0.20457 0.97379 0.73925-0.22741-0.64160
   2  -2   918093.85  705.64   1 0.00008-0.36087 0.93689 0.93235-0.34961 0.02195
   2  -2  -917738.04  682.68   1 0.00004 0.32974 0.71438 0.35510-0.69975-0.87473
   2   2   918541.64  716.48   1 0.00004-0.20442 0.69592 0.93051-0.71811-0.30391
   2  -2   918270.73  718.41   1 0.00010-0.36152-0.92858-0.93236-0.37110 0.00106
  -2  -2   918013.01  701.77   1 0.00010-0.48667-0.99410-0.87324-0.10841 0.02418
   2   2   917582.57  672.85   1 0.00008-0.20525-0.97383-0.73902 0.22726 0.64165
  -2   2  -918446.61  708.14   1 0.00008 0.36197-0.93619-0.93197 0.35149-0.02004
  -2   2   917341.15  689.52   1 0.00004-0.33058-0.71443-0.35535 0.69970 0.87431
  -2  -2  -917366.32  682.23   1 0.00004 0.20587-0.69535-0.92992 0.71867 0.30471
   2   2  -918707.53  747.07   1-0.34695 0.14020-0.80713-0.92749 0.47765 0.34654
   2  -2  -916701.86  677.77   1-0.52291-0.19214-0.45642-0.81580 0.71988 0.54547
   2   2  -916304.68  651.73   1-0.02216 0.46413 0.99928 0.87992 0.03051-0.10156
  -2  -2  -918093.95  681.56   1-0.12313 0.08102 0.95304 0.71796-0.27665-0.69134
   2   2   918644.56  713.76   1-0.34985-0.55373 0.50968 0.74515-0.78601-0.37165
   2  -2  -917951.85  675.32   1-0.36522-0.03620 0.43966 0.07965-0.82054-0.99616
   2  -2 -10 1093.14   96.99   1 0.00002 0.36970-0.11371-0.49264 0.99351 0.78779
  -2   2 -10 1083.14  109.49   1 0.00010 0.39996 0.93085 0.91580 0.36537-0.03649
   2  -2  10 1106.44  122.71   1 0.00007-0.39930 0.90100 0.91626-0.43381-0.03193
   2  -2 -10 1067.98  103.18   1 0.00005 0.36816 0.76975 0.39080-0.63833-0.84363
   2   2  10 1018.89  113.12   1 0.00004-0.24279 0.66850 0.92280-0.74371-0.29914
   2  -2  10 1152.89  126.02   1 0.00010-0.39994-0.93170-0.91569-0.36320 0.03940
  -2  -2  10 1089.54  116.00   1 0.00010-0.52510-0.99113-0.85050-0.13285 0.03014
  -2   2 -10 1141.72  121.00   1 0.00007 0.40054-0.90031-0.91565 0.43524 0.03385
  -2   2  10 1101.52  115.45   1 0.00005-0.36905-0.76989-0.39111 0.63817 0.84310
  -2  -2 -10 1055.12  110.08   1 0.00004 0.24434-0.66781-0.92209 0.74432 0.30005
   2   2 -10 1045.37  119.93   1-0.36267 0.16299-0.78688-0.92696 0.49928 0.33789
   2  -2 -10 1025.60  123.03   1-0.51949-0.15024-0.46759-0.84669 0.71518 0.51043
   2   2 -10  933.20  102.33   1-0.02893 0.49575 0.99878 0.85976 0.03983-0.12258
  -2  -2 -10 1121.55  109.76   1-0.11113 0.13138 0.96192 0.70707-0.24969-0.69482
   2  -2 -10 1117.78  100.63   1-0.34945 0.01789 0.51136 0.13153-0.78510-0.99115
   2   2  10  981.93  102.33   1-0.36353-0.60573 0.44810 0.70338-0.81673-0.37194
   2  -2 -1112321.73  475.48   1 0.00002 0.40819-0.11049-0.50912 0.99387 0.75773
   2  -2  1113018.81  507.40   1 0.00006-0.43768 0.86089 0.89586-0.50878-0.07654
   2  -2 -1112791.16  494.44   1 0.00006 0.40654 0.81707 0.41841-0.57652-0.81218
   2   2  1112638.63  494.10   1 0.00003-0.28116 0.63955 0.91357-0.76874-0.29381
   2  -2  1113966.53  551.64   1 0.00010-0.43836-0.93185-0.89604-0.36282 0.07021
  -2  -2  1112978.95  513.34   1 0.00010-0.56353-0.98605-0.82565-0.16641 0.02698
  -2   2 -1112628.79  505.34   1 0.00006 0.43901-0.85998-0.89503 0.51031 0.07860
  -2   2  1111319.94  467.46   1 0.00006-0.40751-0.81725-0.41874 0.57627 0.81153
  -2  -2 -1112742.43  487.62   1 0.00003 0.28282-0.63874-0.91273 0.76941 0.29482
   2   2 -1112764.49  441.53   1-0.37766 0.18651-0.76618-0.92599 0.51992 0.32824
  -2  -2 -1112280.89  536.31   1-0.41193-0.12888-0.71323-0.98734 0.56710 0.09242
   2  -2 -1112017.11  493.68   1-0.51791-0.11017-0.47265-0.87146 0.71299 0.47792
   2  -2  1113173.33  500.86   1-0.37957-0.81713 0.35872 0.39501-0.85278-0.41983
   2   2  1112280.89  486.94   1-0.37554-0.65608 0.38350 0.65859-0.84373-0.36851
   2  -2 -1213270.05  538.82   1 0.00002 0.44669-0.10132-0.51967 0.99485 0.72828
   2  -2  1213291.74  543.31   1 0.00006-0.47606 0.81737 0.87205-0.57611-0.11350
   2   2  1212905.58  538.54   1 0.00003-0.31954 0.60906 0.90280-0.79311-0.28782
   2  -2  1214006.09  616.55   1 0.00010-0.47678-0.92950-0.87390-0.36880 0.09465
  -2   2 -1213436.93  540.15   1 0.00006 0.47748-0.81623-0.87098 0.57772 0.11569
  -2  -2 -1212959.51  518.97   1 0.00003 0.32129-0.60812-0.90182 0.79383 0.28893
   2   2 -1213100.92  542.35   1-0.39207 0.21061-0.74494-0.92447 0.53975 0.31778
  -2  -2 -1213007.23  559.76   1-0.42056-0.09901-0.69849-0.99233 0.57898 0.07402
   2  -2 -1212461.61  524.19   1-0.51783-0.07162-0.47289-0.89141 0.71289 0.44748
   2   2  1212917.75  528.11   1-0.38583-0.70469 0.31577 0.61068-0.86684-0.36119
   2  -2  1310982.43  571.14   1 0.00005-0.51445 0.77096 0.84535-0.63687-0.14391
   2   2  1310877.18  573.25   1 0.00003-0.35791 0.57699 0.89043-0.81675-0.28109
  -2  -2 -1310644.16  555.22   1 0.00003 0.35977-0.57591-0.88931 0.81751 0.28229
   2   2 -1310982.00  591.95   1-0.40598 0.23521-0.72304-0.92230 0.55891 0.30665
  -2  -2 -1310368.68  589.31   1-0.42957-0.06950-0.68244-0.99600 0.59138 0.05612
   2  -2 -13 9976.21  574.99   1-0.51898-0.03429-0.46921-0.90745 0.71448 0.41874
   2   2  1311121.62  596.32   1-0.39427-0.75146 0.24472 0.55944-0.88580-0.34973
   2  -2  14  451.84   94.23   1 0.00004-0.55278 0.72188 0.81608-0.69200-0.16860
   2   2  14  442.29   97.99   1 0.00002-0.39629 0.54326 0.87642-0.83956-0.27353
  -2  -2 -14  382.97   85.71   1 0.00002 0.39824-0.54203-0.87514 0.84035 0.27481
  -2   2 -14  477.46  124.47   1-0.29540 0.25944-0.86449-0.95879 0.40667-0.11578
   2   2 -14  440.52  107.17   1-0.41945 0.26025-0.70042-0.91939 0.57746 0.29491
  -2  -2 -14  421.13  137.54   1-0.43883-0.04025-0.66516-0.99844 0.60413 0.03859
   2  -2 -14  383.01  123.18   1-0.52113 0.00203-0.46228-0.92023 0.71743 0.39137
   2   2  14  463.07   94.05   1-0.40072-0.79623 0.17003 0.50457-0.90028-0.33378
   2   2  15 6788.10  446.56   1 0.00002-0.43467 0.50781 0.86069-0.86146-0.26508
  -2  -2 -15 6575.14  436.61   1 0.00002 0.43672-0.50642-0.85923 0.86228 0.26642
  -2   2 -15 6393.41  448.68   1-0.31835 0.27501-0.84057-0.95460 0.43827-0.11447
   2   2 -15 6923.45  475.69   1-0.43253 0.28568-0.67699-0.91570 0.59546 0.28263
  -2  -2 -15 6262.28  463.64   1-0.44826-0.01117-0.64670-0.99971 0.61711 0.02127
   2  -2 -15 5878.17  406.29   1-0.52407 0.03757-0.45254-0.93021 0.72148 0.36509
  -2   4   021623.89  593.36   1 0.00004 0.09331 0.08035 0.38183 0.99676 0.91950
  -2  -4   020005.57  526.97   1 0.00006-0.21905 0.82171 0.64498-0.56989-0.73212
   2   4   020381.85  558.70   1 0.00002 0.21915 0.49783 0.67445-0.86727-0.70504
   2   4   021014.00  548.27   1 0.00006 0.21862-0.82213-0.64545 0.56929 0.73184
  -2  -4   020180.24  630.53   1 0.00002-0.21853-0.49895-0.67564 0.86662 0.70408
   2   4   022906.27  650.48   1-0.55790-0.33906-0.31434-0.13752 0.76806 0.93065
  -2   4   019370.93  635.00   1-0.57507-0.48192 0.20620 0.50754 0.79169 0.71424
  -2  -4   018625.69  674.87   1-0.56345-0.78228 0.28427 0.10730 0.77569 0.61361
   2  -4   020202.66  677.99   1-0.50550-0.59862 0.51005 0.20870 0.69592 0.77336
  -2  -4   020920.97  540.01   1-0.18070-0.40026 0.89584 0.71922-0.40597-0.56789
   2   4   021908.82  608.18   1-0.29724-0.07765 0.68239 0.85892-0.66781-0.50617
  -2   4   1 3274.34  174.74   1 0.00003 0.05480-0.02291 0.29827 0.99973 0.95290
  -2   4  -1 3187.53  169.96   1 0.00005 0.13181 0.18338 0.46516 0.98304 0.87535
   2  -4  -1 3383.49  180.50   1 0.00006-0.05471 0.30708-0.01412 0.95168 0.99840
   2  -4   1 2959.65  172.75   1 0.00007-0.13179 0.51877 0.23707 0.85490 0.96250
  -2  -4   1 3238.12  156.68   1 0.00006-0.25742 0.82253 0.66551-0.56871-0.70058
  -2  -4  -1 3307.72  158.25   1 0.00006-0.18068 0.82695 0.63051-0.56226-0.75485
   2   4   1 3110.61  169.21   1 0.00002 0.18078 0.54597 0.74230-0.83780-0.64520
   2   4  -1 3165.38  169.94   1 0.00001 0.25751 0.41821 0.57512-0.90834-0.77648
   2   4   1 3138.10  156.76   1 0.00006 0.18014-0.82726-0.63086 0.56181 0.75468
   2   4  -1 2964.66  163.63   1 0.00006 0.25710-0.82310-0.66613 0.56788 0.70011
  -2  -4  -1 3488.93  182.72   1 0.00002-0.18004-0.54675-0.74316 0.83729 0.64443
  -2  -4   1 3348.67  180.88   1 0.00001-0.25702-0.41984-0.57683 0.90759 0.77537
   2   4   1 3470.14  203.18   1-0.50966-0.32926-0.49793-0.30151 0.70164 0.89480
   2   4  -1 3287.83  195.32   1-0.58653-0.32940-0.06292 0.09433 0.80747 0.93946
  -2   4   1 2930.00  220.36   1-0.58696-0.53212 0.04991 0.37093 0.80807 0.76108
  -2  -4  -1 2770.80  227.09   1-0.58756-0.76789 0.02174-0.17482 0.80888 0.61625
  -2   4  -1 2875.12  204.52   1-0.54963-0.41811 0.35402 0.63570 0.75667 0.64889
   2  -4  -1 3307.86  229.02   1-0.54554-0.60031 0.37190 0.05090 0.75104 0.79814
  -2  -4   1 3115.95  233.49   1-0.48047-0.73769 0.57585 0.41851 0.66146 0.52975
   2  -4   1 3368.34  243.34   1-0.45129-0.58278 0.64056 0.35887 0.62129 0.72908
  -2  -4   1 3490.48  163.58   1-0.16200-0.41992 0.91721 0.76038-0.36396-0.49545
   2   4  -1 3258.18  174.50   1-0.29391-0.03599 0.69106 0.84778-0.66033-0.52911
   2   4   1 3120.64  165.61   1-0.30250-0.12123 0.66829 0.86464-0.67961-0.48754
   2  -4  -2 2372.02  163.49   1 0.00005-0.01623 0.21820-0.12269 0.97590 0.99231
  -2   4  -2 2451.02  173.80   1 0.00005 0.17028 0.28248 0.54460 0.95927 0.82122
   2  -4   2 2150.16  170.07   1 0.00008-0.17024 0.63136 0.36937 0.77548 0.91355
  -2  -4  -2 2214.36  151.47   1 0.00006-0.14230 0.83595 0.61980-0.54879-0.77174
  -2  -4   2 2224.65  149.85   1 0.00006-0.29580 0.83339 0.69608-0.55268-0.65419
   2   4   2 2374.20  168.89   1 0.00003 0.14242 0.57459 0.79064-0.81844-0.59547
   2   4  -2 2447.45  171.85   1-0.00000 0.29587 0.28417 0.42136-0.95877-0.85726
   2   4   2 2407.81  162.05   1 0.00006 0.14167-0.83617-0.62008 0.54845 0.77164
   2   4  -2 2403.03  158.91   1 0.00006 0.29558-0.83417-0.69690 0.55149 0.65341
  -2  -4  -2 2250.75  167.92   1 0.00003-0.14156-0.57514-0.79124 0.81805 0.59488
  -2  -4   2 2299.13  170.12   1-0.00000-0.29551-0.28663-0.42391 0.95804 0.85613
   2   4   2 2750.45  203.74   1-0.45979-0.31787-0.62283-0.40669 0.63298 0.85647
  -2  -4  -2 2425.36  217.23   1-0.57885-0.72081-0.17286-0.38905 0.79689 0.57363
  -2   4   2 2209.23  207.30   1-0.58452-0.56793-0.10378 0.23707 0.80470 0.78818
   2   4  -2 2563.79  199.16   1-0.57258-0.27699 0.22535 0.36299 0.78826 0.88966
   2  -4  -2 2259.22  202.58   1-0.57091-0.58731 0.23725-0.10340 0.78597 0.80272
  -2   4  -2 2253.05  190.65   1-0.51424-0.34437 0.48410 0.74613 0.70795 0.56980
   2  -4   2 2142.11  210.60   1-0.38649-0.55632 0.75333 0.49123 0.53207 0.67021
  -2  -4   2 2170.12  186.51   1-0.34342-0.63895 0.81149 0.67366 0.47279 0.37137
  -2  -4   2 2355.00  159.08   1-0.13535-0.43163 0.94297 0.80593-0.30409-0.40516
  -2  -4  -2 2262.89  151.76   1-0.20125-0.34409 0.86894 0.65274-0.45214-0.67492
   2   4  -2 2399.88  170.88   1-0.29313 0.00311 0.69307 0.82998-0.65857-0.55778
   2   4   2 2463.69  174.57   1-0.30917-0.16624 0.64955 0.86572-0.69461-0.47210
  -2  -4   3 2836.90  197.09   1 0.00002-0.33430-0.04620-0.16420 0.99893 0.92805
   2  -4  -3 2900.56  187.00   1 0.00004 0.02225 0.14278-0.21782 0.98975 0.97573
  -2   4  -3 3081.08  197.67   1 0.00006 0.20878 0.37471 0.61714 0.92714 0.75864
   2  -4   3 2642.51  194.08   1 0.00009-0.20877 0.73819 0.49600 0.67458 0.84284
  -2  -4   3 2777.86  174.55   1 0.00006-0.33417 0.86191 0.74431-0.50705-0.57820
   2   4   3 3003.28  200.60   1 0.00003 0.10405 0.59032 0.82609-0.80716-0.55383
   2  -4  -3 2997.83  191.75   1-0.00000 0.02120 0.21930-0.14115-0.97565-0.98976
  -2   4  -3 2815.53  196.17   1 0.00009 0.20967-0.73899-0.49705-0.67371-0.84200
   2   4   3 2954.68  184.60   1 0.00006 0.10319-0.84745-0.61164 0.53087 0.78437
   2   4  -3 2901.13  179.10   1 0.00006 0.33406-0.86296-0.74539 0.50527 0.57687
  -2   4   3 3193.62  206.27   1-0.00000-0.02169-0.21941 0.14090 0.97563 0.98978
   2   4   3 3235.11  225.19   1-0.41412-0.31101-0.70954-0.47370 0.57012 0.82393
  -2  -4  -3 3016.33  240.98   1-0.55957-0.66309-0.30566-0.54154 0.77035 0.51675
  -2   4   3 2836.13  242.41   1-0.56967-0.59152-0.24577 0.11477 0.78426 0.79807
   2  -4  -3 2910.77  226.97   1-0.58379-0.56184 0.11506-0.24527 0.80370 0.79004
   2   4  -3 3079.71  217.21   1-0.51579-0.18183 0.47930 0.59729 0.71008 0.78113
  -2   4  -3 2845.87  219.81   1-0.47388-0.26564 0.59145 0.83383 0.65239 0.48389
  -2  -4   3 3002.17  216.58   1-0.19561-0.52953 0.94298 0.82480 0.26930 0.19822
  -2  -4  -3 2917.96  179.74   1-0.20540-0.30988 0.86305 0.62706-0.46146-0.71467
   2   4  -3 3009.38  195.70   1-0.29569 0.03887 0.68645 0.80354-0.66433-0.59397
   2   4   3 2952.53  194.19   1-0.31686-0.21225 0.62675 0.86273-0.71188-0.45895
   2  -4  -3 2891.00  181.04   1-0.39894-0.37840 0.19366-0.16686-0.89629-0.91047
   2  -4  -416842.49  576.27   1 0.00004 0.06073 0.08111-0.29919 0.99670 0.95225
  -2   4  -416476.60  575.39   1 0.00007 0.24727 0.45697 0.67970 0.88947 0.69054
   2  -4   415724.00  589.15   1 0.00010-0.24719 0.83226 0.60978 0.55437 0.75303
  -2  -4   417176.01  573.89   1 0.00007-0.37252 0.92441 0.82645-0.38138-0.42213
   2   4   416715.40  634.47   1 0.00003 0.06568 0.59706 0.85254-0.80219-0.51850
   2  -4  -417149.95  578.78   1-0.00000 0.05958 0.30861-0.07155-0.95118-0.99565
  -2   4  -416014.38  592.79   1 0.00010 0.24810-0.83319-0.61104-0.55298-0.75170
   2   4  -416299.36  555.19   1 0.00008 0.37290-0.92659-0.82887 0.37606 0.41703
   2   4   416849.55  573.33   1 0.00006 0.06471-0.86014-0.60462 0.51005 0.79387
   2   4   418741.54  671.35   1-0.37388-0.30927-0.77154-0.51597 0.51471 0.79882
  -2  -4  -417543.63  688.25   1-0.53987-0.60482-0.39515-0.65071 0.74323 0.45908
  -2   4   415715.15  647.07   1-0.54570-0.60600-0.37122 0.00901 0.75126 0.79541
   2  -4  -416497.04  625.98   1-0.58766-0.52731 0.01036-0.36963 0.80903 0.76505
   2   4  -417712.88  632.41   1-0.44194-0.06959 0.65918 0.75754 0.60841 0.64906
  -2   4  -415640.73  585.34   1-0.43327-0.18665 0.67563 0.89835 0.59648 0.39763
  -2  -4   417507.08  630.05   1-0.07207-0.44438 0.99245 0.89392 0.09922 0.05847
  -2  -4  -416562.78  549.28   1-0.20647-0.27260 0.86149 0.60571-0.46388-0.74752
   2   4  -417289.51  627.20   1-0.30266 0.07023 0.66783 0.76510-0.67999-0.64005
   2   4   416281.41  600.01   1-0.32523-0.25895 0.60026 0.85606-0.73068-0.44732
   2  -4  -417025.25  566.03   1-0.39472-0.33585 0.24026-0.14007-0.88682-0.93143
   2  -4  -5 2046.97  143.35   1 0.00003 0.09922 0.03224-0.36777 0.99948 0.92460
  -2   4  -5 2071.90  145.87   1 0.00008 0.28578 0.52809 0.73094 0.84918 0.61972
   2  -4   5 2022.00  157.22   1 0.00010-0.28570 0.90674 0.70376 0.42168 0.65045
  -2  -4  -5 2046.36  132.32   1 0.00007-0.02717 0.87347 0.59819-0.48686-0.80088
   2   4   5 2057.32  152.82   1 0.00003 0.02731 0.59718 0.87238-0.80210-0.48804
   2  -4  -5 2161.91  139.15   1 0.00000 0.09796 0.39117-0.00872-0.92031-0.99515
  -2   4  -5 1991.45  150.90   1 0.00010 0.28646-0.90797-0.70557-0.41901-0.64815
   2   4   5 2047.12  136.16   1 0.00007 0.02624-0.87359-0.59837 0.48665 0.80078
  -2  -4  -5 2133.14  153.09   1 0.00003-0.02612-0.59727-0.87250 0.80203 0.48791
   2   4   5 2249.48  167.33   1-0.33810-0.31201-0.81794-0.54265 0.46546 0.77985
  -2   4   5 1926.24  189.88   1-0.51596-0.61468-0.47877-0.07868 0.71032 0.78483
  -2  -4  -5 2305.08  192.49   1-0.52350-0.54998-0.45445-0.72972 0.72070 0.40622
   2  -4  -5 2251.50  181.33   1-0.58600-0.48725-0.07584-0.47550 0.80674 0.73245
  -2   4  -5 1965.12  154.31   1-0.39581-0.11080 0.73919 0.94234 0.54490 0.31576
   2   4  -5 2179.36  156.32   1-0.37422 0.03647 0.77106 0.84995 0.51518 0.52559
  -2  -4   5 2349.76  159.16   1 0.02190-0.38879 0.99930 0.92043-0.03015-0.04056
  -2  -4  -5 2128.56  133.69   1-0.20497-0.23274 0.86365 0.58809-0.46051-0.77458
   2   4  -5 2130.61  142.48   1-0.31548 0.09575 0.63094 0.70840-0.70878-0.69927
   2  -4  -5 2227.83  140.88   1-0.38936-0.29216 0.28838-0.11177-0.87477-0.94981
   2  -4  -6 2844.10  167.27   1 0.00003 0.13771-0.00521-0.42493 0.99998 0.89468
  -2   4  -6 2721.28  170.93   1 0.00008 0.32424 0.58651 0.76964 0.80993 0.55000
   2  -4   6 2813.32  195.62   1 0.00010-0.32413 0.95953 0.77624 0.28160 0.54071
  -2  -4  -6 2764.58  164.63   1 0.00007 0.01120 0.88725 0.59226-0.46128-0.80566
   2   4   6 2600.24  168.06   1 0.00003-0.01106 0.59223 0.88714-0.80576-0.46134
   2  -4  -6 2885.04  165.23   1 0.00001 0.13634 0.46685 0.04724-0.88433-0.98953
  -2   4  -6 2542.06  172.97   1 0.00010 0.32488-0.96047-0.77785-0.27838-0.53795
   2   4   6 2659.88  165.30   1 0.00007-0.01223-0.88736-0.59243 0.46107 0.80552
  -2  -4  -6 2955.88  179.93   1 0.00003 0.01234-0.59219-0.88713 0.80579 0.46135
  -2   4   6 2518.27  161.00   1 0.00001-0.13710-0.46689-0.04745 0.88431 0.98941
   2   4   6 2950.28  205.74   1-0.30570-0.31820-0.85405-0.55915 0.42086 0.76556
  -2   4   6 2384.66  215.40   1-0.48311-0.62031-0.56941-0.14961 0.66510 0.76994
  -2  -4  -6 3017.30  224.43   1-0.51102-0.49902-0.49387-0.78886 0.70351 0.35870
   2  -4  -6 2887.89  205.50   1-0.58150-0.44433-0.14477-0.56437 0.80055 0.69573
  -2   4  -6 2432.54  175.64   1-0.36304-0.03965 0.78638 0.96988 0.49980 0.24032
   2   4  -6 2732.07  177.20   1-0.31998 0.12909 0.83877 0.89801 0.44052 0.42059
  -2  -4   6 3354.84  201.39   1 0.09300-0.35608 0.98739 0.92817-0.12803-0.10811
  -2  -4  -6 2790.38  155.34   1-0.20125-0.19066 0.86893 0.57357-0.45215-0.79665
   2   4  -6 2644.55  161.00   1-0.33623 0.11333 0.56241 0.62005-0.75540-0.77632
   2   4   6 2583.60  164.16   1-0.34295-0.35334 0.53729 0.83271-0.77051-0.42629
   2  -4  -6 3003.51  170.56   1-0.38277-0.24724 0.33754-0.08243-0.85996-0.96543
   2  -4  -7 3274.98  175.18   1 0.00002 0.17620-0.03270-0.47212 0.99946 0.86373
  -2   4  -7 3033.14  183.30   1 0.00008 0.36270 0.63318 0.79659 0.77399 0.48360
   2  -4   7 3364.93  212.23   1 0.00010-0.36262 0.98982 0.82595 0.14225 0.43163
   2   4   7 2919.67  180.55   1 0.00003-0.04943 0.58320 0.89783-0.81232-0.43754
   2  -4  -7 3349.31  180.96   1 0.00002 0.17472 0.53585 0.09652-0.84431-0.97987
  -2   4  -7 2908.01  182.66   1 0.00010 0.36343-0.99033-0.82732-0.13869-0.42830
  -2  -4  -7 3452.60  197.79   1 0.00003 0.05082-0.58305-0.89769 0.81243 0.43767
  -2   4   7 2918.13  176.50   1 0.00002-0.17557-0.53590-0.09676 0.84427 0.97969
  -2  -4  -7 3509.55  237.20   1-0.50213-0.45165-0.51960-0.83430 0.69128 0.31614
   2  -4  -7 3475.45  226.17   1-0.57598-0.40036-0.19868-0.63797 0.79294 0.65779
  -2   4  -7 2819.12  181.05   1-0.33566 0.02612 0.82084 0.98470 0.46210 0.17229
   2   4  -7 3086.97  185.96   1-0.27966 0.20780 0.87951 0.91910 0.38501 0.33475
  -2  -4  -7 3234.46  177.58   1-0.19557-0.14662 0.87674 0.56160-0.43939-0.81431
   2   4   7 2926.05  176.25   1-0.35188-0.40059 0.50117 0.81641-0.79057-0.41592
   2   4  -7 2891.61  183.30   1-0.36810 0.11979 0.42491 0.46275-0.82700-0.87835
   2  -4  -7 3488.21  180.92   1-0.37490-0.20104 0.38731-0.05246-0.84227-0.97817
   2  -4  -8 8943.40  379.63   1 0.00002 0.21469-0.05143-0.51059 0.99867 0.83258
  -2   4  -8 8936.12  386.21   1 0.00009 0.40116 0.66918 0.81288 0.74309 0.42223
   2  -4   8 9282.35  428.80   1 0.00009-0.40104 0.99997 0.85578 0.00707 0.32680
   2  -4   8 8881.33  395.77   1 0.00009-0.40165-0.66980-0.81270-0.74254-0.42212
  -2   4  -8 8567.66  387.53   1 0.00009 0.40186-0.99999-0.85675-0.00320-0.32322
  -2  -4  -8 9216.03  398.18   1 0.00003 0.08930-0.57053-0.90487 0.82127 0.41620
  -2  -4  -8 9746.17  469.78   1-0.49629-0.40733-0.53560-0.87001 0.68324 0.27777
   2  -4  -8 9219.57  429.48   1-0.57051-0.35645-0.24003-0.69901 0.78542 0.61993
   2   4  -8 9179.21  408.92   1-0.25081 0.27505 0.90435 0.92427 0.34529 0.26470
   2  -4   8 9687.03  434.21   1-0.00292-0.40310 0.99998 0.85581 0.00401 0.32417
  -2  -4  -8 8799.73  368.12   1-0.18811-0.10080 0.88656 0.55163-0.42262-0.82797
   2   4   8 8577.02  380.47   1-0.36061-0.44765 0.46212 0.79717-0.81018-0.40511
   2  -4  -8 9641.04  393.74   1-0.36568-0.15350 0.43736-0.02223-0.82157-0.98789
   2  -4  -9  694.75   91.01   1 0.00002 0.25318-0.06286-0.54173 0.99802 0.80151
   2  -4   9  731.70  111.22   1 0.00009-0.43946 0.99278 0.86827-0.11992 0.23015
   2   4   9  559.31  114.11   1 0.00002-0.12617 0.55545 0.90952-0.83154-0.39603
   2  -4   9  699.59   97.80   1 0.00009-0.44007-0.69662-0.81971-0.71743-0.36659
  -2   4  -9  628.15   99.71   1 0.00009 0.44026-0.99240-0.86867 0.12300-0.22710
  -2  -4  -9  674.48  104.78   1 0.00002 0.12778-0.55509-0.90914 0.83178 0.39639
  -2  -4  -9  739.44  135.51   1-0.49296-0.36552-0.54443-0.89856 0.67865 0.24285
   2  -4  -9  658.98  125.67   1-0.56570-0.31319-0.27104-0.74970 0.77879 0.58296
   2   4  -9  647.02  102.15   1-0.23095 0.33330 0.91954 0.91981 0.31795 0.20702
   2  -4   9  768.93  125.39   1 0.04471-0.39385 0.99710 0.87258-0.06155 0.28893
   2  -4   9  693.96   96.93   1-0.14424-0.58383 0.93497 0.81142-0.32406 0.02682
   2   4   9  597.92   89.98   1-0.36899-0.49436 0.42021 0.77508-0.82901-0.39351
   2  -4   9  720.42   89.80   1-0.39649-0.83590 0.22203 0.09928-0.89078-0.53982
   2  -4 -10 1312.29  108.02   1 0.00002 0.29167-0.06785-0.56643 0.99769 0.77076
   2  -4  10 1497.74  140.18   1 0.00008-0.47748 0.97132 0.86694-0.23774 0.14287
   2   4  10 1261.62  125.99   1 0.00002-0.16455 0.53754 0.91133-0.84323-0.37735
   2  -4  10 1396.32  125.77   1 0.00009-0.47846-0.71537-0.81871-0.69874-0.31746
  -2   4 -10 1371.02  128.13   1 0.00008 0.47870-0.97070-0.86670 0.24028-0.14019
  -2  -4 -10 1387.59  127.67   1 0.00002 0.16625-0.53706-0.91082 0.84353 0.37783
  -2  -4 -10 1435.47  162.15   1-0.49166-0.32574-0.54783-0.92167 0.67686 0.21073
   2  -4 -10 1471.29  159.90   1-0.56180-0.27085-0.29357-0.79191 0.77342 0.54726
   2   4 -10 1284.95  118.44   1-0.21797 0.38467 0.92867 0.90928 0.30008 0.15881
   2  -4  10 1656.83  156.17   1 0.08796-0.38899 0.98873 0.88386-0.12109 0.25972
   2   4  10 1225.38  117.05   1-0.37688-0.54058 0.37548 0.75016-0.84674-0.38081
   2  -4 -11 2924.29  169.75   1 0.00002 0.33016-0.06722-0.58551 0.99773 0.74038
   2  -4  11 3255.08  206.28   1 0.00008-0.51586 0.93876 0.85408-0.34454 0.06644
   2   4  11 2868.29  188.22   1 0.00002-0.20292 0.51728 0.91078-0.85581-0.35957
   2  -4  11 3086.27  196.78   1 0.00009-0.51688-0.72725-0.81079-0.68636-0.27466
  -2  -4 -11 3046.87  189.49   1 0.00002 0.20473-0.51669-0.91015 0.85617 0.36014
   2   4 -11 3198.28  210.36   1-0.29278 0.34945-0.86707-0.90750 0.40307 0.23304
  -2  -4 -11 2990.05  228.75   1-0.49199-0.28759-0.54697-0.94051 0.67732 0.18086
   2  -4 -11 3003.38  221.04   1-0.55891-0.22952-0.30913-0.82716 0.76944 0.51295
   2   4  11 2749.75  175.29   1-0.38415-0.58617 0.32794 0.72244-0.86306-0.36670
   2  -4 -12 7410.88  397.68   1 0.00002 0.36866-0.06160-0.59960 0.99809 0.71032
   2  -4  12 7706.32  439.21   1 0.00007-0.55431 0.89715 0.83231-0.44171-0.00042
   2   4  12 7434.98  414.72   1 0.00002-0.24130 0.49483 0.90804-0.86899-0.34238
  -2  -4 -12 7129.69  394.31   1 0.00002 0.24320-0.49411-0.90728 0.86939 0.34305
   2   4 -12 8169.91  466.72   1-0.31800 0.36274-0.84095-0.90111 0.43779 0.23749
  -2  -4 -12 6286.06  437.61   1-0.49364-0.25076-0.54264-0.95591 0.67959 0.15280
   2  -4 -12 7348.55  437.91   1-0.55701-0.18918-0.31891-0.85662 0.76683 0.48000
   2   4  12 7183.70  410.25   1-0.39066-0.63101 0.27755 0.69186-0.87769-0.35090
   2  -4 -13  351.20   83.85   1 0.00002 0.40715-0.05153-0.60924 0.99867 0.68046
   2  -4  13  351.65   86.31   1 0.00006-0.59269 0.84850 0.80337-0.52918-0.05753
   2   4  13  439.75  111.25   1 0.00001-0.27967 0.47028 0.90321-0.88251-0.32554
  -2  -4 -13  454.48  103.72   1 0.00001 0.28168-0.46944-0.90231 0.88296 0.32630
   2   4 -13  294.14   99.66   1-0.34083 0.37844-0.81465-0.89439 0.46921 0.23840
   2  -4 -13  329.65  120.63   1-0.55602-0.14975-0.32384-0.88124 0.76547 0.44831
   2   4  13  252.53   86.11   1-0.39628-0.67496 0.22424 0.65837-0.89032-0.33310
   2  -4 -14  384.56   85.13   1 0.00002 0.44565-0.03755-0.61492 0.99929 0.65058
   2   4  14  429.01  101.63   1 0.00001-0.31804 0.44371 0.89636-0.89616-0.30883
  -2  -4 -14  330.44  106.94   1 0.00001 0.32016-0.44274-0.89532 0.89664 0.30967
   2  -4 -14  353.64  132.17   1-0.55586-0.11115-0.32465-0.90173 0.76525 0.41775
   2   4  14  467.81   95.85   1-0.40086-0.71787 0.16790 0.62184-0.90061-0.31297
   2   4  15 1199.30  134.83   1 0.00001-0.35642 0.41514 0.88750-0.90975-0.29205
  -2  -4 -15 1337.91  129.76   1 0.00001 0.35863-0.41402-0.88631 0.91026 0.29297
   2  -4 -15 1299.11  149.11   1-0.55641-0.07326-0.32190-0.91866 0.76601 0.38817
   2  -6   0 6861.17  316.03   1 0.00006-0.17123 0.37229-0.04885 0.92811 0.98401
  -2  -6   0 6416.84  275.80   1 0.00005-0.29733 0.75830 0.46220-0.65189-0.83543
   2   6   0 8237.42  362.69   1-0.00000 0.29738 0.24646 0.54256-0.96915-0.78560
   2   6   0 8070.25  337.94   1 0.00005 0.29668-0.75857-0.46240 0.65158 0.83555
  -2  -6   0 7074.30  330.26   1-0.00000-0.29663-0.24800-0.54417 0.96876 0.78478
  -2   6   0 8276.00  410.38   1-0.58497-0.41373 0.09618 0.51711 0.80532 0.74927
  -2  -6   0 6425.32  380.91   1-0.52974-0.82656 0.43302 0.13647 0.72929 0.54604
  -2  -6   0 6881.18  292.19   1-0.20960-0.50763 0.85691 0.56081-0.47092-0.65405
   2   6   0 7826.92  339.18   1-0.35382-0.05572 0.49283 0.78877-0.79493-0.61214
   2  -6   0 6718.41  294.25   1-0.38876-0.56172 0.29320-0.12728-0.87343-0.81747
  -2   6  -1 2626.20  161.38   1 0.00002 0.20983-0.04964 0.35176 0.99876 0.91226
   2  -6  -1 2322.31  163.59   1 0.00006-0.13275 0.29630-0.14453 0.95509 0.98055
   2  -6   1 2395.48  164.46   1 0.00007-0.20971 0.45619 0.05473 0.88988 0.97623
  -2  -6  -1 2225.30  138.25   1 0.00005-0.25894 0.76913 0.45317-0.63908-0.85298
  -2  -6   1 2262.93  139.32   1 0.00005-0.33570 0.75067 0.47428-0.66067-0.81384
   2   6   1 2474.70  163.57   1-0.00000 0.25902 0.30784 0.62366-0.95143-0.73752
   2  -6  -1 2384.25  154.69   1-0.00001-0.13380 0.18483-0.25568-0.98277-0.95745
   2   6  -1 2545.42  169.14   1-0.00001 0.33574 0.16229 0.43868-0.98674-0.83356
   2   6   1 2560.40  152.75   1 0.00005 0.25820-0.76945-0.45358 0.63869 0.85299
   2   6  -1 2563.65  150.40   1 0.00005 0.33516-0.75105-0.47459 0.66023 0.81389
  -2  -6  -1 2456.91  167.64   1 0.00000-0.25815-0.30907-0.62495 0.95103 0.73674
  -2   6   1 2753.93  174.58   1-0.00001 0.13333-0.18520 0.25517 0.98269 0.95765
  -2  -6   1 2447.20  167.61   1-0.00001-0.33512-0.16420-0.44067 0.98642 0.83276
   2   6   1 2800.80  194.13   1-0.53876-0.28023-0.39949-0.08351 0.74171 0.95629
   2   6  -1 2687.30  188.53   1-0.58323-0.24786-0.12307 0.15363 0.80292 0.95653
  -2   6   1 2635.47  213.93   1-0.58761-0.45478-0.01665 0.42393 0.80896 0.78323
  -2   6  -1 2687.86  208.76   1-0.57503-0.36551 0.20648 0.60774 0.79164 0.70501
  -2  -6  -1 2293.60  213.76   1-0.56551-0.82395 0.27218-0.04402 0.77853 0.56493
  -2  -6   1 2300.14  214.06   1-0.47185-0.80706 0.59613 0.31922 0.64959 0.49673
  -2  -6   1 2388.78  145.74   1-0.19837-0.53476 0.87293 0.59662-0.44567-0.59838
  -2  -6  -1 2392.31  147.33   1-0.21721-0.47689 0.84537 0.52948-0.48802-0.70158
   2   6  -1 2427.40  161.69   1-0.35502-0.01859 0.48761 0.76373-0.79761-0.64526
   2   6   1 2529.97  163.76   1-0.35407-0.09430 0.49173 0.80749-0.79549-0.58228
   2  -6  -1 2345.06  145.53   1-0.38669-0.52132 0.30932-0.13097-0.86878-0.84324
   2  -6   1 2381.34  145.23   1-0.39012-0.60140 0.28209-0.11857-0.87648-0.79009
  -2  -6   234103.41 1237.55   1 0.00002-0.37384-0.04617-0.30354 0.99893 0.87641
  -2   6  -236728.16 1242.56   1 0.00003 0.24832 0.01663 0.39836 0.99986 0.88297
   2  -6   231004.18 1303.09   1 0.00008-0.24837 0.54599 0.16446 0.83779 0.95460
  -2  -6  -232439.40 1082.44   1 0.00005-0.22056 0.78237 0.44669-0.62281-0.86707
  -2  -6   232579.99 1119.42   1 0.00005-0.37408 0.74792 0.49125-0.66378-0.78659
   2   6   235913.48 1195.81   1 0.00000 0.22065 0.35213 0.68767-0.93594-0.69167
   2   6   236073.44 1186.80   1 0.00005 0.21973-0.78262-0.44703 0.62249 0.86710
   2   6  -236363.13 1165.72   1 0.00005 0.37364-0.74845-0.49169 0.66318 0.78653
  -2  -6  -235178.84 1241.14   1 0.00000-0.21966-0.35311-0.68870 0.93557 0.69097
  -2   6   238425.68 1268.69   1-0.00000 0.09485-0.25094 0.20913 0.96799 0.97327
  -2   6   236289.61 1279.08   1-0.58282-0.48815-0.12856 0.33188 0.80236 0.80719
   2   6  -239023.82 1315.50   1-0.58729-0.21376 0.03734 0.29450 0.80851 0.93143
  -2  -6  -235564.87 1301.05   1-0.58295-0.80288 0.12688-0.20891 0.80253 0.55833
  -2   6  -233792.69 1217.67   1-0.55882-0.31092 0.30961 0.69120 0.76932 0.65235
   2  -6   232099.15 1242.86   1-0.40562-0.65341 0.72362 0.34189 0.55842 0.67539
  -2  -6   233511.36 1243.37   1-0.39395-0.76743 0.74205 0.48458 0.54235 0.41978
  -2  -6   234274.68 1143.45   1-0.18261-0.55736 0.89349 0.63697-0.41027-0.53255
   2   6   235734.01 1205.01   1-0.35554-0.13410 0.48529 0.82086-0.79879-0.55515
   2   6  -235234.19 1206.54   1-0.35790 0.01685 0.47468 0.73100-0.80409-0.68216
   2  -6   234581.08 1196.34   1-0.39073-0.64034 0.27696-0.10389-0.87784-0.76103
  -2   6  -3 1300.76  108.80   1 0.00004 0.28682 0.08098 0.44300 0.99671 0.84940
  -2  -6   3 1159.39  119.32   1 0.00004-0.41231 0.10909-0.12855 0.99403 0.90192
   2  -6  -3 1244.60  117.37   1 0.00004-0.05577 0.17237-0.30788 0.98503 0.94978
   2  -6   3 1202.30  123.26   1 0.00008-0.28681 0.63800 0.27619 0.77003 0.91730
  -2  -6  -3 1189.97   98.21   1 0.00005-0.18218 0.79710 0.44172-0.60383-0.87845
  -2  -6   3 1314.82  101.26   1 0.00005-0.41245 0.75244 0.51549-0.65864-0.75110
   2   6   3 1229.73  119.28   1 0.00000 0.18228 0.38343 0.73868-0.92356-0.64893
   2   6   3 1250.32  104.50   1 0.00005 0.18127-0.79733-0.44205 0.60353 0.87847
   2   6  -3 1283.30  103.26   1 0.00005 0.41211-0.75316-0.51611 0.65783 0.75085
  -2  -6  -3 1321.43  125.97   1 0.00000-0.18118-0.38420-0.73949 0.92324 0.64832
  -2   6   3 1317.73  115.84   1 0.00000 0.05638-0.31493 0.16485 0.94911 0.98470
   2   6   3 1462.92  140.33   1-0.47306-0.29149-0.59334-0.23794 0.65126 0.92650
  -2   6   3 1288.20  163.17   1-0.57119-0.51496-0.23534 0.24478 0.78635 0.82151
  -2  -6  -3 1333.79  170.21   1-0.58769-0.76922 0.00537-0.35008 0.80906 0.53454
   2   6  -3 1396.46  137.40   1-0.57628-0.16435 0.19615 0.43366 0.79336 0.88596
  -2   6  -3 1263.82  146.23   1-0.53792-0.25165 0.40274 0.76467 0.74055 0.59324
   2  -6   3 1232.19  167.58   1-0.35250-0.63868 0.80014 0.43806 0.48528 0.63260
  -2  -6   3 1342.93  146.40   1-0.30319-0.71506 0.85664 0.61882 0.41740 0.32516
  -2  -6   3 1367.08  110.41   1-0.16109-0.57420 0.91818 0.68144-0.36192-0.45378
   2   6   3 1223.52  116.43   1-0.35801-0.17489 0.47421 0.82959-0.80433-0.53026
   2   6  -3 1241.34  115.30   1-0.36270 0.05037 0.45210 0.68860-0.81488-0.72338
   2  -6  -3 1254.50  108.29   1-0.38036-0.43833 0.35360-0.12632-0.85456-0.88988
   2  -6   3 1364.00  116.64   1-0.39049-0.67843 0.27899-0.08204-0.87731-0.73006
   2  -6  -4 8986.08  363.83   1 0.00004-0.01728 0.12425-0.37570 0.99225 0.92657
  -2   6  -4 9259.04  365.61   1 0.00004 0.32532 0.14207 0.48439 0.98985 0.81211
  -2  -6   4 7584.46  454.44   1 0.00006-0.45081 0.31544 0.09755 0.94894 0.88727
   2  -6   4 7989.27  384.69   1 0.00009-0.32527 0.72803 0.38593 0.68554 0.86328
  -2  -6  -4 7837.19  314.70   1 0.00006-0.14381 0.81277 0.43768-0.58257-0.88755
  -2  -6   4 8609.43  336.85   1 0.00005-0.45081 0.76793 0.55052-0.64052-0.70263
   2   6   4 9144.83  375.91   1 0.00001 0.14391 0.40467 0.77964-0.91446-0.60946
  -2   6  -4 8650.45  388.09   1 0.00009 0.32652-0.72863-0.38702-0.68490-0.86231
   2   6   4 8761.63  347.46   1 0.00006 0.14279-0.81296-0.43798 0.58231 0.88757
   2   6  -4 9822.18  406.09   1 0.00005 0.45060-0.76918-0.55183 0.63902 0.70174
  -2  -6  -4 8962.76  380.95   1 0.00001-0.14270-0.40526-0.78026 0.91419 0.60895
   2   6   410619.88  460.84   1-0.43914-0.29646-0.66456-0.28948 0.60456 0.91011
  -2  -6  -4 9321.45  458.35   1-0.58517-0.72830-0.09266-0.46778 0.80559 0.50075
   2  -6  -4 9259.70  442.18   1-0.57907-0.59671 0.17070-0.32885 0.79720 0.73197
   2   6  -4 9827.50  431.49   1-0.55220-0.10186 0.34229 0.56019 0.76020 0.82207
  -2   6  -4 8942.18  408.70   1-0.51427-0.18966 0.48401 0.82632 0.70799 0.53029
   2  -6   4 8481.52  432.57   1-0.29631-0.62087 0.86359 0.52116 0.40793 0.58557
  -2  -6   4 9285.57  416.11   1-0.21002-0.66028 0.93396 0.71580 0.28913 0.22723
  -2  -6   4 9215.14  365.46   1-0.13218-0.58371 0.94569 0.72853-0.29696-0.35849
   2   6   4 9240.66  379.96   1-0.36127-0.21648 0.45902 0.83422-0.81165-0.50715
   2   6  -4 9158.73  371.24   1-0.36961 0.08180 0.41691 0.63359-0.83040-0.76933
   2  -6   4 9383.64  376.02   1-0.38920-0.71547 0.28969-0.05153-0.87441-0.69673
   2  -6  -5 1743.78  136.52   1 0.00004 0.02119 0.08489-0.43477 0.99638 0.90029
  -2   6  -5 1982.69  137.95   1 0.00005 0.36381 0.19877 0.52138 0.98004 0.77187
   2  -6   5 1598.68  155.48   1 0.00009-0.36376 0.81076 0.48849 0.58537 0.79312
  -2  -6   5 1700.52  119.23   1 0.00006-0.48918 0.80242 0.60472-0.59675-0.62849
   2   6   5 1892.69  151.19   1 0.00001 0.10554 0.41797 0.81266-0.90845-0.57309
  -2   6  -5 1884.56  155.20   1 0.00009 0.36495-0.81195-0.49015-0.58371-0.79155
   2   6   5 2267.61  181.14   1-0.40628-0.30210-0.72256-0.32775 0.55931 0.89515
  -2  -6  -5 2378.15  216.31   1-0.57912-0.68384-0.17017-0.56499 0.79727 0.46165
   2  -6  -5 1899.30  183.46   1-0.58491-0.56415 0.09724-0.42197 0.80524 0.70969
   2   6  -5 2071.21  163.09   1-0.52034-0.03163 0.46484 0.66308 0.71635 0.74787
   2  -6   5 1774.30  185.03   1-0.23909-0.60206 0.91350 0.59074 0.32916 0.53716
  -2  -6   5 2183.74  165.19   1-0.12252-0.61118 0.97802 0.77951 0.16868 0.13712
   2   6   5 1907.39  149.92   1-0.36513-0.25868 0.44012 0.83513-0.82034-0.48542
   2   6  -5 1924.87  139.86   1-0.37867 0.11107 0.36446 0.56133-0.85074-0.82010
   2  -6   5 1846.76  136.63   1-0.38646-0.75106 0.31109-0.01031-0.86825-0.66015
   2  -6  -624394.07 1118.22   1 0.00003 0.05968 0.05358-0.48578 0.99856 0.87203
  -2   6  -626707.47  788.66   1 0.00005 0.40231 0.25006 0.55296 0.96822 0.72963
  -2  -6   621933.26 1720.03   1 0.00010-0.52758 0.86787 0.68998 0.49678 0.49555
   2  -6   622062.19 1054.70   1 0.00010-0.40218 0.88249 0.57994 0.47031 0.70845
  -2  -6   624069.89 1069.51   1 0.00007-0.52755 0.87457 0.69658-0.48488-0.48626
   2   6   625611.00  810.76   1 0.00001 0.06717 0.42488 0.83929-0.90524-0.53951
  -2   6  -623844.10 1106.56   1 0.00010 0.40330-0.88356-0.58148-0.46830-0.70655
  -2  -6  -625473.34  860.64   1-0.57199-0.63827-0.22965-0.64416 0.78745 0.42149
   2  -6  -625835.00  872.28   1-0.58736-0.52819 0.03403-0.50484 0.80861 0.68273
   2   6  -627622.14  855.94   1-0.48587 0.04121 0.56258 0.74121 0.66889 0.67000
   2  -6   624804.36  834.75   1-0.18262-0.58398 0.95049 0.64738 0.25141 0.48975
  -2  -6   624797.46 1076.21   1-0.04464-0.57168 0.99711 0.81825 0.06145 0.06023
   2  -6   624990.27  755.28   1-0.38151-0.78444 0.34606 0.04446-0.85713-0.61860
   2   6  -624986.56  752.27   1-0.38954 0.13852 0.28689 0.46394-0.87518-0.87496
   2  -6  -7 2060.07  140.33   1 0.00003 0.09817 0.02958-0.52949 0.99956 0.84261
   2  -6   7 2054.26  177.16   1 0.00010-0.44069 0.93846 0.65530 0.34537 0.61347
   2   6   7 2067.48  163.92   1 0.00001 0.02880 0.42653 0.86065-0.90447-0.50837
  -2   6  -7 1957.91  153.02   1 0.00010 0.44172-0.93981-0.65752-0.34167-0.61036
  -2  -6  -7 2135.26  155.75   1 0.00001-0.02726-0.42669-0.86080 0.90439 0.50820
  -2  -6  -7 2228.88  203.96   1-0.56505-0.59289-0.27492-0.70912 0.77789 0.38161
   2  -6  -7 2237.48  199.79   1-0.58759-0.49003-0.01921-0.57775 0.80892 0.65273
   2  -6   7 2179.73  195.60   1-0.12807-0.56781 0.97596 0.69251 0.17631 0.44498
  -2  -6   7 2306.63  165.98   1 0.02291-0.54252 0.99923 0.84003-0.03154-0.00243
   2  -6   7 2134.28  144.13   1-0.37286-0.81411 0.39904 0.11726-0.83769-0.56873
   2   6   7 1909.75  146.79   1-0.37404-0.34424 0.39231 0.82695-0.84034-0.44456
   2  -6  -8 5753.60  216.97   1 0.00003 0.13666 0.01213-0.56664 0.99992 0.81254
   2  -6   8 5508.77  282.12   1 0.00010-0.47913 0.97716 0.71369 0.21248 0.51094
   2   6   8 6306.98  262.86   1 0.00001-0.00956 0.42375 0.87758-0.90577-0.47931
  -2   6  -8 6160.22  276.12   1 0.00010 0.48027-0.97786-0.71511-0.20925-0.50788
  -2  -6  -8 5977.95  258.76   1 0.00001 0.01121-0.42378-0.87760 0.90576 0.47925
  -2  -6  -8 6139.11  303.95   1-0.55897-0.54837-0.30881-0.76269 0.76953 0.34290
   2  -6  -8 6123.49  297.28   1-0.58652-0.45056-0.06321-0.64141 0.80746 0.62094
   2  -6   8 6168.83  298.52   1-0.07616-0.55430 0.99156 0.72776 0.10486 0.40386
  -2  -6   8 6732.94  261.71   1 0.08107-0.52274 0.99043 0.85088-0.11161-0.05217
   2  -6   8 5782.18  225.77   1-0.35721-0.83680 0.47782 0.21585-0.80254-0.50316
   2   6   8 5920.95  237.98   1-0.37877-0.38730 0.36380 0.81826-0.85098-0.42477
   2  -6  -9  544.47   93.89   1 0.00003 0.17516 0.00058-0.59790 1.00000 0.78219
   2  -6   9  556.26  105.14   1 0.00010-0.51766 0.99695 0.75276 0.07794 0.40664
   2   6   9  502.35  112.79   1 0.00001-0.04793 0.41717 0.89072-0.90882-0.45200
  -2  -6  -9  575.69  109.18   1 0.00001 0.04968-0.41708-0.89061 0.90886 0.45203
  -2  -6  -9  593.05  138.53   1-0.55403-0.50499-0.33358-0.80714 0.76273 0.30577
   2  -6  -9  595.00  129.82   1-0.58481-0.41046-0.09887-0.69674 0.80511 0.58828
   2  -6   9  587.05  131.57   1-0.02727-0.54379 0.99892 0.75477 0.03754 0.36688
   2   6   9  472.53   96.25   1-0.38351-0.43037 0.33241 0.80669-0.86163-0.40499
   2  -6 -1018283.58  732.60   1 0.00003 0.21365-0.00567-0.62387 0.99998 0.75175
   2  -6  1019680.56  866.79   1 0.00009-0.55609 0.99842 0.77392-0.05605 0.30299
  -2  -6 -1019147.07  807.96   1 0.00001 0.08816-0.40706-0.90029 0.91339 0.42625
  -2  -6 -1019603.80  880.09   1-0.55031-0.46282-0.35098-0.84423 0.75760 0.27031
   2  -6 -1019063.68  818.91   1-0.58293-0.37007-0.12706-0.74498 0.80251 0.55501
   2  -6  1020913.18  884.72   1 0.01853-0.53638 0.99950 0.77500-0.02551 0.33416
   2   6  1017672.06  732.18   1-0.38813-0.47332 0.29823 0.79232-0.87201-0.38494
   2  -6 -11 1286.37  112.82   1 0.00003 0.25214-0.00717-0.64507 0.99997 0.72131
   2  -6  11 1449.22  135.94   1 0.00009-0.59409 0.98248 0.77826-0.18632 0.20336
   2   6  11 1427.25  139.74   1 0.00000-0.12468 0.39439 0.90738-0.91894-0.40138
  -2  -6 -11 1405.98  131.75   1 0.00000 0.12664-0.39407-0.90700 0.91908 0.40162
  -2  -6 -11 1383.14  152.87   1-0.54775-0.42182-0.36236-0.87529 0.75409 0.23645
   2  -6 -11 1385.12  165.67   1-0.58115-0.32984-0.14882-0.78643 0.80006 0.52222
   2  -6  11 1498.74  165.79   1 0.06132-0.53197 0.99454 0.78969-0.08442 0.30558
   2   6  11 1405.62  126.13   1-0.39251-0.51602 0.26131 0.77521-0.88184-0.36434
   2  -6 -12 2952.93  185.76   1 0.00003 0.29063-0.00434-0.66194 0.99999 0.69090
   2   6  12 3237.16  219.00   1 0.00000-0.16305 0.37881 0.91151-0.92547-0.37755
  -2  -6 -12 3030.08  195.80   1 0.00000 0.16512-0.37837-0.91101 0.92565 0.37787
  -2  -6 -12 3207.60  258.97   1-0.54628-0.38190-0.36876-0.90138 0.75205 0.20409
   2  -6 -12 3145.78  241.71   1-0.57965-0.28990-0.16491-0.82221 0.79799 0.48982
   2  -6  12 3729.73  273.16   1 0.10128-0.53041 0.98503 0.79984-0.13943 0.28091
   2   6  12 3137.03  203.81   1-0.39652-0.55836 0.22167 0.75539-0.89085-0.34293
   2  -6 -13  380.03   86.02   1 0.00003 0.32913 0.00245-0.67485 0.99999 0.66048
   2   6  13  394.85  116.52   1 0.00000-0.20142 0.36072 0.91314-0.93267-0.35439
  -2  -6 -13  416.37  113.25   1 0.00000 0.20359-0.36015-0.91250 0.93289 0.35479
  -2  -6 -13  424.06  142.21   1-0.54576-0.34294-0.37097-0.92327 0.75134 0.17304
   2  -6 -13  458.84  140.19   1-0.57852-0.25033-0.17603-0.85301 0.79644 0.45792
   2   6  13  393.01   93.32   1-0.40005-0.60022 0.17930 0.73284-0.89878-0.32043
  -2  -8   0 1398.54  136.52   1 0.00002-0.37489-0.06306-0.47950 0.99800 0.79343
   2  -8   0 1368.08  136.32   1 0.00006-0.24926 0.38800-0.15278 0.92165 0.95630
  -2  -8   0 1267.41  102.69   1 0.00005-0.37559 0.75259 0.33700-0.65848-0.86334
   2   8   0 1388.26  108.51   1 0.00005 0.37475-0.75282-0.33717 0.65822 0.86363
   2   8   0 1570.52  145.11   1-0.56001-0.18500-0.30331 0.11266 0.77096 0.97625
  -2  -8   0 1376.11  173.38   1-0.49528-0.87011 0.53831 0.12215 0.68184 0.47747
   2  -8   0 1651.98  199.91   1-0.47453-0.72363 0.58995 0.04942 0.65327 0.68841
   2   8   0 1327.18  127.00   1-0.38240-0.00579 0.34007 0.75542-0.85913-0.65521
  -2  -8   1 8414.78  380.62   1 0.00003-0.41337 0.01292-0.38378 0.99991 0.82572
   2  -8  -1 8234.94  356.25   1 0.00006-0.21078 0.32698-0.23349 0.94502 0.94923
   2  -8   1 7864.90  351.62   1 0.00007-0.28774 0.45527-0.06581 0.89034 0.95544
  -2  -8   1 7705.43  321.77   1 0.00005-0.41396 0.74624 0.35037-0.66567-0.84016
   2   8  -1 8137.14  326.61   1 0.00005 0.41323-0.74655-0.35061 0.66532 0.84041
   2   8   1 9044.25  406.90   1-0.53933-0.20266-0.39726 0.03827 0.74249 0.97849
  -2  -8  -1 8273.77  434.49   1-0.53138-0.86782 0.42716-0.00862 0.73154 0.49679
   2  -8  -1 9063.50  466.40   1-0.50371-0.71444 0.51515-0.04503 0.69345 0.69824
  -2  -8   1 8021.58  425.90   1-0.44771-0.86091 0.64780 0.25130 0.61636 0.44234
   2  -8   1 9264.82  482.44   1-0.44001-0.72749 0.66289 0.14202 0.60576 0.67125
   2   8  -1 7468.45  324.55   1-0.38413 0.03080 0.32807 0.72360-0.86302-0.68952
   2   8   1 7524.67  336.81   1-0.38152-0.04324 0.34602 0.78118-0.85715-0.62280
  -2  -8   2 6125.24  322.41   1 0.00004-0.45186 0.10758-0.26941 0.99419 0.85043
   2  -8  -2 6520.77  299.71   1 0.00005-0.17230 0.27275-0.30741 0.96208 0.93584
   2  -8   2 6272.34  309.54   1 0.00008-0.32649 0.52797 0.02689 0.84926 0.94481
  -2  -8   2 6022.92  263.28   1 0.00005-0.45233 0.74377 0.36761-0.66842-0.81255
   2   8   2 6531.72  315.04   1-0.00001 0.29889 0.17180 0.62682-0.98513-0.71954
  -2  -8  -2 6341.69  304.03   1-0.00001-0.29776-0.17309-0.62815 0.98490 0.71885
  -2  -8  -2 6250.95  377.38   1-0.55666-0.85473 0.32064-0.13480 0.76635 0.50125
   2  -8  -2 6939.11  383.33   1-0.52749-0.69987 0.44089-0.13891 0.72619 0.70062
   2  -8   2 7214.56  416.24   1-0.40074-0.72648 0.73145 0.23009 0.55170 0.64752
  -2  -8   2 6403.77  356.10   1-0.38986-0.84129 0.74828 0.37118 0.53672 0.39299
   2   8   2 6380.55  295.10   1-0.38141-0.08146 0.34673 0.80171-0.85691-0.59213
   2   8  -2 6416.29  288.69   1-0.38675 0.06651 0.30893 0.68464-0.86889-0.72583
  -2  -8   3 6738.75  298.93   1 0.00005-0.49034 0.22394-0.13335 0.97460 0.86126
   2  -8  -3 7383.72  288.30   1 0.00005-0.13380 0.22583-0.37407 0.97416 0.91769
   2  -8   3 6936.93  284.16   1 0.00008-0.36494 0.60414 0.12278 0.79687 0.92289
  -2  -8   3 6851.68  234.99   1 0.00005-0.49070 0.74651 0.39007-0.66537-0.77913
   2   8   3 7451.88  289.64   1-0.00001 0.26052 0.20858 0.68331-0.97800-0.68205
  -2  -8  -3 7292.36  287.37   1-0.00001-0.25928-0.20967-0.68443 0.97777 0.68140
  -2  -8  -3 7451.73  355.31   1-0.57289-0.83257 0.22307-0.25203 0.78869 0.49324
   2  -8  -3 7914.72  358.37   1-0.54616-0.68016 0.36927-0.23019 0.75189 0.69597
   2  -8   3 7545.73  377.19   1-0.35732-0.72145 0.79392 0.31221 0.49192 0.61808
  -2  -8   3 7820.50  349.72   1-0.32376-0.81358 0.83457 0.47712 0.44572 0.33232
  -2  -8   3 7092.73  237.80   1-0.17534-0.66692 0.90225 0.54604-0.39393-0.50700
   2   8   3 7266.56  282.92   1-0.38199-0.12037 0.34284 0.81763-0.85821-0.56300
   2   8  -3 7181.38  262.94   1-0.39023 0.10136 0.28120 0.63710-0.87672-0.76408
  -2  -8   4  930.81  123.60   1 0.00006-0.52884 0.36446 0.02693 0.93121 0.84828
   2  -8   4  976.17  126.78   1 0.00009-0.40339 0.68162 0.21997 0.73170 0.88818
  -2  -8   4  920.28   85.54   1 0.00005-0.52908 0.75636 0.41964-0.65415-0.73754
   2   8   4  781.09  110.19   1-0.00000 0.22215 0.23642 0.73088-0.97164-0.64533
  -2   8  -4  724.65  105.57   1 0.00009 0.40501-0.68233-0.22130-0.73104-0.88712
  -2  -8  -4  986.07  134.03   1-0.00000-0.22079-0.23734-0.73181 0.97142 0.64474
  -2  -8  -4 1062.20  156.14   1-0.58222-0.80335 0.13612-0.35856 0.80154 0.47545
   2  -8  -4 1120.67  167.99   1-0.56025-0.65587 0.30203-0.31710 0.77129 0.68503
   2  -8   4  908.01  172.25   1-0.31088-0.71340 0.84862 0.38656 0.42799 0.58448
  -2  -8   4 1076.01  135.49   1-0.25323-0.78145 0.90240 0.56461 0.34862 0.26558
  -2  -8   4 1035.56   99.66   1-0.15470-0.68463 0.92480 0.58838-0.34756-0.43020
   2  -8   4 1006.88   99.41   1-0.35762-0.76240 0.47598 0.01534-0.80346-0.64692
   2   8   4  773.04  112.79   1-0.38316-0.15987 0.33484 0.82944-0.86084-0.53521
   2   8  -4  792.91   97.05   1-0.39446 0.13546 0.24287 0.57896-0.88623-0.80402
   2  -8  -5 6118.05  288.06   1 0.00004-0.05682 0.15155-0.48776 0.98844 0.87112
  -2  -8   5 7034.12  384.05   1 0.00008-0.56752 0.53069 0.21343 0.84756 0.79521
   2  -8   5 6650.85  350.10   1 0.00009-0.44190 0.75702 0.31525 0.65339 0.83983
  -2  -8   5 6450.13  303.31   1 0.00005-0.56744 0.77603 0.45881-0.63068-0.68374
   2   8   5 6600.48  315.12   1-0.00000 0.18378 0.25678 0.77095-0.96646-0.60979
  -2   8  -5 6617.80  324.11   1 0.00009 0.44338-0.75835-0.31708-0.65183-0.83837
  -2  -8  -5 7040.69  331.30   1-0.00000-0.18231-0.25754-0.77171 0.96626 0.60927
  -2  -8  -5 7262.42  396.15   1-0.58657-0.76929 0.06192-0.45241 0.80752 0.45110
   2  -8   5 6856.73  393.83   1-0.26252-0.70344 0.89468 0.45229 0.36141 0.54826
  -2  -8   5 7585.83  364.35   1-0.18209-0.74870 0.95078 0.63265 0.25068 0.19797
  -2  -8   5 7118.27  319.00   1-0.12789-0.69626 0.94925 0.63232-0.28732-0.33968
   2  -8   5 7162.80  317.66   1-0.35188-0.79499 0.50116 0.06034-0.79057-0.60360
   2   8   5 6444.03  305.30   1-0.38482-0.19986 0.32311 0.83753-0.86458-0.50852
   2  -8  -6 6731.50  326.01   1 0.00004-0.01833 0.12385-0.53516 0.99229 0.84454
   2  -8   6 6221.35  349.96   1 0.00010-0.48033 0.82808 0.40603 0.56060 0.77744
   2   8   6 6590.02  341.00   1-0.00000 0.14541 0.27081 0.80470-0.96262-0.57559
  -2   8  -6 6370.07  334.52   1 0.00010 0.48181-0.82948-0.40801-0.55852-0.77548
  -2  -8  -6 6623.94  334.13   1-0.00000-0.14383-0.27142-0.80530 0.96245 0.57514
  -2  -8  -6 6759.46  392.56   1-0.58770-0.73202-0.00056-0.53457 0.80907 0.42233
   2  -8   6 6782.17  402.13   1-0.21338-0.69270 0.93175 0.50901 0.29376 0.51095
  -2  -8   6 7380.46  379.64   1-0.11332-0.71833 0.98123 0.68274 0.15601 0.13364
   2  -8   6 6661.48  338.39   1-0.34323-0.82467 0.53621 0.11521-0.77114-0.55374
   2   8   6 6324.70  326.71   1-0.38687-0.24024 0.30795 0.84219-0.86918-0.48269
   2  -8  -7 5158.27  302.91   1 0.00004 0.02015 0.10190-0.57682 0.99479 0.81661
   2  -8   7 4856.37  330.76   1 0.00010-0.51875 0.89079 0.48844 0.45440 0.70164
   2   8   7 4730.29  308.44   1-0.00000 0.10704 0.27943 0.83303-0.96016-0.54275
  -2  -8  -7 5323.12  364.86   1-0.58689-0.69282-0.05229-0.60595 0.80797 0.39091
   2  -8   7 5403.62  379.22   1-0.16438-0.68208 0.96008 0.55699 0.22630 0.47382
  -2  -8   7 5535.48  337.34   1-0.04888-0.69227 0.99653 0.71770 0.06729 0.07525
   2  -8  -8  760.67  113.37   1 0.00004 0.05864 0.08524-0.61318 0.99636 0.78775
   2  -8   8  739.12  141.21   1 0.00010-0.55725 0.94130 0.55827 0.33754 0.61464
   2   8   8  572.41  122.10   1-0.00000 0.06867 0.28336 0.85668-0.95901-0.51124
  -2  -8  -8  754.62  151.83   1-0.58507-0.65260-0.09442-0.66774 0.80546 0.35808
   2  -8   8  766.93  157.43   1-0.11626-0.67235 0.98023 0.59680 0.16005 0.43791
  -2  -8   8  833.08  114.95   1 0.01033-0.67144 0.99984 0.74066-0.01423 0.02406
   2   8   8  577.26  122.64   1-0.39173-0.32175 0.26827 0.84214-0.88009-0.43275
   2  -8  -9 6653.69  226.41   1 0.00003 0.09713 0.07347-0.64466 0.99729 0.75826
   2  -8   9 6466.95  289.85   1 0.00010-0.59569 0.97771 0.61437 0.20993 0.51738
   2   8   9 6410.36  261.18   1-0.00000 0.03030 0.28320 0.87623-0.95906-0.48092
  -2  -8  -9 6869.93  260.76   1-0.00000-0.02840-0.28340-0.87640 0.95899 0.48073
  -2  -8  -9 6747.98  304.02   1-0.58283-0.61187-0.12837-0.72151 0.80238 0.32407
   2  -8   9 7239.89  307.43   1-0.06955-0.66404 0.99297 0.62918 0.09575 0.40394
  -2  -8   9 7716.69  266.72   1 0.06415-0.65601 0.99402 0.75449-0.08832-0.01970
   2   8   9 6256.39  245.92   1-0.39434-0.36269 0.24408 0.83776-0.88595-0.40818
   2  -8 -10 3666.30  220.54   1 0.00003 0.13562 0.06619-0.67164 0.99780 0.72834
   2   8  10 3696.26  234.86   1-0.00000-0.00806 0.27939 0.89214-0.96017-0.45167
  -2  -8 -10 3801.42  230.96   1-0.00000 0.01007-0.27947-0.89217 0.96015 0.45157
  -2  -8 -10 3867.61  286.42   1-0.58061-0.57121-0.15478-0.76760 0.79932 0.29068
   2  -8 -10 3671.64  275.33   1-0.58747-0.45270 0.02781-0.70927 0.80876 0.54035
   2  -8  10 3894.80  274.60   1-0.02461-0.65749 0.99912 0.65499 0.03389 0.37241
   2   8  10 3536.37  238.17   1-0.39693-0.40361 0.21714 0.83063-0.89178-0.38358
   2  -8 -11 2195.73  181.22   1 0.00003 0.17411 0.06307-0.69448 0.99800 0.69812
   2   8  11 1954.89  195.94   1-0.00000-0.04643 0.27230 0.90477-0.96221-0.42334
  -2  -8 -11 2353.81  204.60   1-0.00000 0.04855-0.27226-0.90467 0.96222 0.42332
  -2  -8 -11 2280.70  241.53   1-0.57864-0.53079-0.17488-0.80739 0.79661 0.25762
   2  -8 -11 2399.71  232.50   1-0.58769-0.41453 0.00328-0.75346 0.80907 0.51034
   2  -8  11 2449.51  234.88   1 0.01835-0.65290 0.99951 0.67503-0.02527 0.34358
   2   8  11 1950.49  178.85   1-0.39942-0.44443 0.18753 0.82084-0.89737-0.35874
  -2 -10   0 5086.42  456.01   1 0.00004-0.45290 0.08724-0.44882 0.99618 0.77034
   2 -10   0 4918.96  228.48   1 0.00007-0.32730 0.42976-0.23065 0.90294 0.91633
  -2 -10   0 5193.87  289.38   1-0.45726-0.91008 0.62819 0.09245 0.62950 0.40397
   2 -10   0 6061.21  321.38   1-0.44837-0.77546 0.64648-0.01362 0.61726 0.63124
   2  10   0 4429.09  206.41   1-0.39788 0.05723 0.20644 0.74119-0.89390-0.66884
  -2 -10  -1 3240.12  195.46   1 0.00003-0.41442 0.03059-0.52517 0.99953 0.74326
  -2 -10   1 3114.84  200.32   1 0.00004-0.49139 0.15511-0.36125 0.98789 0.79248
   2 -10  -1 3130.52  174.91   1 0.00006-0.28882 0.37839-0.30172 0.92564 0.90859
   2 -10   1 3143.23  186.52   1 0.00007-0.36578 0.48606-0.15466 0.87392 0.91775
  -2 -10  -1 3285.95  228.72   1-0.49221-0.90666 0.54638-0.00901 0.67763 0.42175
   2 -10  -1 3925.43  272.82   1-0.47553-0.76425 0.58760-0.09216 0.65466 0.63829
   2 -10   1 3877.03  268.39   1-0.41739-0.78285 0.70398 0.06353 0.57461 0.61894
  -2 -10   1 3224.17  233.92   1-0.41521-0.90640 0.70771 0.19162 0.57161 0.37643
   2  10   1 3077.35  178.45   1-0.39699 0.01979 0.21651 0.77108-0.89191-0.63642
   2  10  -1 3085.62  173.84   1-0.39917 0.09427 0.19080 0.70573-0.89680-0.70217
  -2 -10  -2 7312.42  277.91   1 0.00003-0.37593-0.01617-0.59165 0.99986 0.71317
  -2 -10   2 7210.92  281.88   1 0.00005-0.52987 0.23554-0.26111 0.97186 0.80687
   2 -10  -2 7251.90  264.98   1 0.00006-0.25034 0.33228-0.36752 0.94318 0.89568
   2 -10   2 6896.15  275.76   1 0.00008-0.40461 0.54688-0.07373 0.83721 0.91150
  -2 -10  -2 6973.46 3734.10   1-0.52016-0.89622 0.46542-0.10960 0.71610 0.42984
   2 -10  -2 8186.62  358.50   1-0.49882-0.74917 0.52874-0.17068 0.68673 0.64000
   2 -10   2 7996.93  363.59   1-0.38296-0.78665 0.75853 0.13754 0.52722 0.60188
  -2 -10   2 6854.16  315.49   1-0.36691-0.89629 0.78117 0.28444 0.50512 0.34023
   2  10   2 6866.55  265.30   1-0.39652-0.01806 0.22168 0.79606-0.89085-0.60494
   2  10  -2 6816.78  273.50   1-0.40080 0.13096 0.16876 0.66388-0.90048-0.73628
  -2 -10  -3 3458.08  196.45   1 0.00002-0.33744-0.05418-0.64940 0.99853 0.68147
   2 -10  -3 3484.03  186.61   1 0.00005-0.21186 0.29155-0.42795 0.95655 0.87861
  -2 -10   3 3402.56  216.36   1 0.00006-0.56840 0.32965-0.14720 0.94410 0.80947
   2 -10   3 3322.93  194.18   1 0.00008-0.44306 0.61095 0.01005 0.79166 0.89643
  -2 -10  -3 3411.51 1911.43   1-0.54164-0.87932 0.38806-0.20661 0.74567 0.42906
   2 -10  -3 3951.72  266.58   1-0.51835-0.73035 0.47124-0.24781 0.71361 0.63653
   2 -10   3 3722.00  269.01   1-0.34530-0.78737 0.80918 0.20784 0.47537 0.58037
  -2 -10   3 3620.66  244.99   1-0.31302-0.88079 0.84635 0.36926 0.43093 0.29638
   2  10   3 3602.05  192.28   1-0.39645-0.05631 0.22247 0.81667-0.89069-0.57434
  -2 -10  -4 4218.24  206.64   1 0.00002-0.29895-0.08473-0.69966 0.99640 0.64892
   2 -10  -4 4268.49  203.51   1 0.00005-0.17337 0.25615-0.48305 0.96663 0.85825
   2 -10   4 4187.67  223.82   1 0.00009-0.48152 0.67703 0.09585 0.73594 0.87117
  -2 -10  -4 4391.81  266.89   1-0.55754-0.85685 0.31620-0.29814 0.76756 0.42061
   2 -10  -4 4962.64  298.20   1-0.53438-0.70800 0.41618-0.32252 0.73567 0.62825
   2 -10   4 4264.26  280.75   1-0.30507-0.78553 0.85471 0.27301 0.41999 0.55532
  -2 -10   4 4640.70  258.44   1-0.25541-0.86159 0.90062 0.44319 0.35163 0.24743
   2  10   4 3635.97  197.22   1-0.39674-0.09493 0.21931 0.83332-0.89134-0.54457
  -2 -10  -5 2163.11  169.65   1 0.00002-0.26046-0.10865-0.74329 0.99407 0.61617
   2 -10  -5 2169.90  179.80   1 0.00005-0.13485 0.22629-0.53267 0.97405 0.83550
   2 -10   5 2186.83  200.07   1 0.00009-0.52005 0.74284 0.18158 0.66946 0.83460
  -2 -10  -5 2327.65  229.94   1-0.56888-0.82981 0.25102-0.38298 0.78317 0.40587
   2 -10  -5 2481.99  242.30   1-0.54727-0.68251 0.36449-0.39388 0.75342 0.61565
   2 -10   5 2055.62  231.66   1-0.26288-0.78177 0.89437 0.33234 0.36191 0.52761
  -2 -10   5 2487.37  207.05   1-0.19602-0.84059 0.94273 0.50496 0.26986 0.19599
   2  10   5 2245.13  182.57   1-0.39735-0.13387 0.21253 0.84635-0.89271-0.51551
   2 -10   6 6775.03  391.86   1 0.00009-0.55847 0.80718 0.26563 0.59030 0.78583
   2  10   6 6081.88  351.98   1-0.00001 0.22366 0.12733 0.78070-0.99185-0.58350
  -2 -10  -6 6448.24  349.19   1-0.00001-0.22192-0.12822-0.78157 0.99174 0.58299
  -2 -10  -6 7107.80  422.38   1-0.57670-0.79902 0.19250-0.46107 0.79394 0.38595
   2 -10  -6 7907.47  456.68   1-0.55743-0.65429 0.31679-0.46124 0.76740 0.59929
   2 -10   6 6472.42  414.06   1-0.21949-0.77676 0.92764 0.38526 0.30217 0.49820
  -2 -10   6 7632.36  406.88   1-0.13658-0.81954 0.97262 0.55450 0.18802 0.14450
   2  10   6 5891.49  343.71   1-0.39822-0.17307 0.20241 0.85605-0.89467-0.48704
   2  10   7 3039.72  248.32   1-0.00001 0.18529 0.14032 0.81341-0.99010-0.55138
  -2 -10  -7 3063.00  250.42   1-0.00001-0.18344-0.14107-0.81413 0.98999 0.55093
  -2 -10  -7 3371.29  295.44   1-0.58175-0.76567 0.14193-0.53130 0.80088 0.36257
   2 -10  -7 3644.85  315.72   1-0.56528-0.62377 0.27351-0.52418 0.77822 0.57976
   2 -10   7 3179.37  292.04   1-0.17549-0.77115 0.95437 0.43165 0.24160 0.46797
   2  10   7 2973.52  245.63   1-0.39929-0.21247 0.18918 0.86263-0.89709-0.45903
   2 -10  -8 2202.40  153.81   1 0.00004-0.01937 0.16444-0.65364 0.98638 0.75655
   2  10   8 2004.86  168.17   1-0.00001 0.14692 0.14876 0.84156-0.98887-0.51979
  -2 -10  -8 2127.43  173.35   1-0.00001-0.14496-0.14938-0.84214 0.98878 0.51939
  -2 -10  -8 2340.62  203.24   1-0.58484-0.73036 0.09848-0.59441 0.80514 0.33651
   2 -10  -8 2464.82  223.45   1-0.57126-0.59137 0.23485-0.58250 0.78644 0.55764
   2 -10   8 2385.57  227.18   1-0.13147-0.76552 0.97465 0.47158 0.18099 0.43770
  -3   1   038001.33 1145.52   1 0.00008-0.05509 0.65390 0.80717 0.75657 0.58772
   3  -1   040006.83  973.65   1 0.00009 0.05507 0.81622 0.66297 0.57773 0.74661
  -3  -1   041183.87 1004.70   1 0.00010-0.13289 0.94987 0.98354 0.31263 0.12235
   3   1   039370.69 1238.90   1 0.00010 0.13314 0.99948 0.96587 0.03197 0.22217
   3  -1   041421.78  972.36   1 0.00008 0.05469-0.65363-0.80700-0.75681-0.58801
  -3   1   037955.84 1148.08   1 0.00009-0.05453-0.81581-0.66246-0.57830-0.74710
   3   1   038311.78 1152.53   1 0.00010 0.13319-0.94941-0.98331-0.31401-0.12393
   3  -1   040754.90 1075.42   1-0.43111-0.37581 0.67961 0.52654 0.59351 0.76256
  -3  -1   035081.33 1105.96   1-0.40350-0.53680 0.72704 0.76052 0.55550 0.36529
   3   1   038805.10 1332.70   1-0.04467 0.08856 0.99710 0.96373 0.06150 0.25175
   3  -1  -1 2806.73  168.00   1 0.00009 0.09373 0.72130 0.54831 0.69262 0.83100
  -3   1  -1 2646.39  170.83   1 0.00009-0.01644 0.75758 0.89112 0.65274 0.45346
  -3  -1   1 3011.28  186.15   1 0.00010-0.17143 0.87987 0.93333 0.47521 0.31542
   3  -1   1 2792.58  176.02   1 0.00010 0.01664 0.89175 0.75821 0.45252 0.65179
   3   1  -1 2563.42  160.82   1 0.00010 0.17153 0.98882 0.93545 0.14911 0.30903
   3   1   1 2440.58  157.35   1 0.00009 0.09472 0.99768 0.98375-0.06803 0.15252
   3  -1   1 2999.09  177.07   1 0.00009 0.01630-0.75749-0.89104-0.65284-0.45361
   3   1  -1 2478.51  157.09   1 0.00010 0.17161-0.87907-0.93275-0.47668-0.31703
  -3   1  -1 2477.12  162.18   1 0.00010-0.01614-0.89159-0.75802-0.45283-0.65203
   3   1   1 2416.15  150.12   1 0.00010 0.09462-0.98107-0.99515-0.19364 0.02684
  -3  -1   1 2882.15  176.27   1 0.00010-0.17127-0.98849-0.93486-0.15124-0.31094
  -3  -1   1 2422.25  216.91   1-0.58769-0.75920-0.00490 0.04830 0.80906 0.64905
  -3   1   1 2160.59  202.70   1-0.58012-0.67365 0.15999 0.33277 0.79865 0.65988
   3  -1  -1 2872.01  205.07   1-0.52143-0.42779 0.46129 0.28856 0.71785 0.85657
  -3   1  -1 2079.99  168.92   1-0.44775-0.46467 0.64772 0.78113 0.61641 0.41701
   3   1  -1 2625.37  181.42   1-0.32035-0.14871 0.83837 0.78534 0.44102 0.60093
   3  -1   1 2821.36  192.33   1-0.32122-0.30432 0.83740 0.70403 0.44222 0.64165
  -3  -1  -1 2932.40  183.71   1-0.20028-0.29514 0.94013 0.95386 0.27572 0.05514
   3   1   1 2389.70  153.93   1 0.07329 0.16814 0.99219 0.97847-0.10090 0.11968
  -3   1   2 1758.19  137.28   1 0.00006-0.13211 0.35286 0.54543 0.93567 0.82767
   3  -1  -2 2427.75  151.67   1 0.00008 0.13218 0.61394 0.42124 0.78934 0.89726
  -3  -1   2 2603.53  171.46   1 0.00009-0.21012 0.73836 0.81152 0.67440 0.54522
  -3   1  -2 1971.82  144.69   1 0.00010 0.02198 0.83115 0.94498 0.55603 0.32637
   3  -1   2 2490.68  164.31   1 0.00010-0.02189 0.94575 0.83190 0.32487 0.55449
   3   1  -2 1904.85  136.52   1 0.00010 0.20997 0.95853 0.88547 0.28496 0.41453
  -3  -1  -2 2422.22  156.10   1 0.00010-0.05610 0.99404 0.98828 0.10900-0.14190
   3   1   2 1828.07  137.09   1 0.00009 0.05642 0.98802 0.99373-0.15427 0.09649
   3   1  -2 1897.81  136.90   1 0.00009 0.21001-0.73743-0.81092-0.67541-0.54616
   3  -1   2 2707.07  166.33   1 0.00010-0.02211-0.83129-0.94504-0.55583-0.32618
  -3   1  -2 1789.02  138.68   1 0.00010 0.02228-0.94585-0.83206-0.32460-0.55422
  -3  -1   2 2471.08  164.57   1 0.00010-0.20982-0.95745-0.88398-0.28856-0.41778
   3   1   2 1804.52  128.44   1 0.00010 0.05619-0.99401-0.98832-0.10924 0.14164
  -3  -1  -2 2352.60  157.10   1 0.00009-0.05583-0.98804-0.99374 0.15418-0.09667
  -3  -1   2 2577.63  217.57   1-0.45116-0.66095-0.64083-0.56760 0.62111 0.49088
  -3   1   2 1559.54  171.75   1-0.58352-0.71539-0.11905 0.07361 0.80332 0.69483
   3   1  -2 1886.91  170.50   1-0.57500-0.36509 0.20671 0.13384 0.79160 0.92129
   3  -1  -2 2591.54  192.06   1-0.57287-0.44085 0.22317 0.03079 0.78867 0.89704
   3  -1   2 2621.70  181.20   1-0.21524-0.23673 0.93051 0.81681 0.29632 0.52609
  -3  -1  -2 2429.07  156.93   1-0.09426-0.15072 0.98705 0.98112 0.12977-0.12114
  -3   1   3 5389.75  239.22   1 0.00004-0.17059 0.17167 0.38389 0.98515 0.90747
   3  -1  -3 5307.21  222.11   1 0.00007 0.17073 0.50444 0.29218 0.86344 0.94099
  -3  -1   3 5289.61  245.28   1 0.00007-0.24862 0.49451 0.58714 0.86916 0.77035
  -3   1  -3 5883.67  247.91   1 0.00010 0.06041 0.88108 0.97520 0.47295 0.21289
   3   1  -3 5851.44  241.99   1 0.00010 0.24849 0.89880 0.80591 0.43835 0.53735
   3  -1   3 4952.81  234.60   1 0.00010-0.06033 0.97963 0.88546 0.20080 0.46076
  -3  -1  -3 5544.10  254.26   1 0.00010-0.01768 0.99864 0.97320 0.05202-0.22923
   3   1   3 5585.72  269.33   1 0.00008 0.01804 0.97313 0.99854-0.23023 0.05089
  -3  -1   3 5318.71  255.38   1 0.00010-0.24824-0.89716-0.80390-0.44169-0.54047
  -3   1  -3 5540.04  244.47   1 0.00010 0.06085-0.97971-0.88566-0.20040-0.46031
   3   1   3 5460.00  224.83   1 0.00010 0.01775-0.99865-0.97318-0.05194 0.22934
  -3  -1  -3 5273.93  257.25   1 0.00008-0.01738-0.97310-0.99855 0.23035-0.05088
  -3  -1   3 5410.65  280.04   1-0.33164-0.57986-0.82556-0.73253 0.45657 0.35657
  -3   1   3 5097.02  292.01   1-0.55022-0.72054-0.35137-0.13902 0.75748 0.67932
   3   1  -3 5887.94  286.46   1-0.56890-0.32050-0.25087-0.34365 0.78320 0.88271
   3  -1  -3 5317.99  277.61   1-0.58763-0.41731 0.01491-0.19717 0.80898 0.88711
   3  -1   3 5484.02  253.10   1-0.12414-0.18402 0.97743 0.88338 0.17090 0.43100
  -3  -1  -3 5009.59  218.91   1-0.03932-0.05740 0.99775 0.97217 0.05414-0.22710
  -3   1   438270.58  950.17   1 0.00003-0.20910-0.01133 0.22059 0.99993 0.95268
  -3  -1   437195.68  922.44   1 0.00004-0.28712 0.15805 0.27032 0.98743 0.91895
   3  -1  -440886.64 1737.24   1 0.00006 0.20921 0.40115 0.16920 0.91600 0.96311
   3   1  -442681.45 1802.84   1 0.00009 0.28692 0.80458 0.69199 0.59383 0.66243
  -3   1  -440441.18 1706.13   1 0.00010 0.09897 0.91387 0.98834 0.40600 0.11568
  -3  -1  -441232.31 1753.26   1 0.00010 0.02073 0.99988 0.95476 0.01498-0.29662
   3   1   439888.79 1725.19   1 0.00008-0.02033 0.95459 0.99970-0.29791 0.01358
  -3  -1   439402.66  950.53   1 0.00009-0.28666-0.80191-0.68882-0.59743-0.66583
  -3   1  -439134.66  970.96   1 0.00010 0.09928-0.99652-0.92225-0.08331-0.37362
   3   1   439705.01  943.08   1 0.00010-0.02067-0.99989-0.95465-0.01468 0.29700
  -3  -1  -438872.25  955.08   1 0.00008 0.02106-0.95450-0.99968 0.29819-0.01341
  -3   1   436300.17 1034.23   1-0.50098-0.70973-0.52281-0.29056 0.68969 0.64175
   3   1  -441630.64 1820.39   1-0.52512-0.23823-0.44902-0.56171 0.72292 0.79228
   3  -1  -440178.04 1733.17   1-0.58162-0.37286-0.14339-0.37543 0.80071 0.84854
   3  -1   439658.17 1026.09   1-0.04892-0.14719 0.99652 0.92213 0.06734 0.35778
  -3  -1  -437074.42  923.44   1-0.01011 0.01019 0.99985 0.95461 0.01392-0.29765
   3   1   440401.19 1735.80   1-0.13613-0.15640 0.94229 0.98767-0.30585 0.00570
   3  -1  -5 1247.25  110.18   1 0.00006 0.24769 0.31121 0.05956 0.95033 0.96700
   3   1  -5 1186.04  106.40   1 0.00009 0.32567 0.68137 0.54907 0.73193 0.76970
  -3   1  -5 1279.24  125.32   1 0.00010 0.13741 0.93516 0.98994 0.35420 0.03353
  -3  -1  -5 1306.35  125.51   1 0.00009 0.05914 0.99997 0.93516-0.00726-0.34922
   3  -1   5 1263.98  131.04   1 0.00009-0.13716 0.99973 0.94485-0.02319 0.29738
   3   1   5 1125.47  116.36   1 0.00008-0.05871 0.93331 0.99812-0.35905-0.01718
   3   1  -5 1212.99  111.29   1-0.00001 0.32489 0.18655 0.05419-0.98244-0.94419
   3  -1  -5 1309.66  118.69   1-0.00001 0.24663 0.18111-0.07072-0.98346-0.96652
  -3  -1   5 1189.95  109.00   1 0.00009-0.32509-0.67915-0.54621-0.73399-0.77198
   3  -1   5 1387.05  129.46   1 0.00010-0.13733-0.93559-0.99000-0.35308-0.03216
  -3   1  -5 1209.78  126.60   1 0.00009 0.13771-0.99969-0.94519 0.02467-0.29603
  -3  -1  -5 1295.67  123.60   1 0.00008 0.05951-0.93315-0.99807 0.35948 0.01750
  -3   1   5 1134.24  114.96   1-0.00001-0.24697-0.18037 0.07126 0.98359 0.96639
  -3  -1   5 1179.70  118.10   1-0.00001-0.32504-0.18410-0.05193 0.98290 0.94427
  -3   1   5 1190.15  156.72   1-0.44920-0.69644-0.64480-0.39288 0.61841 0.60050
   3   1  -5 1292.54  129.93   1-0.49399-0.16863-0.54173-0.67413 0.68007 0.71910
   3  -1  -5 1335.52  138.38   1-0.56815-0.32095-0.25576-0.50748 0.78216 0.79965
  -3  -1  -5 1218.48  115.27   1 0.00491 0.06361 0.99996 0.93507-0.00676-0.34868
   3  -1   5 1352.04  131.48   1 0.01305-0.12360 0.99975 0.94500-0.01797 0.30279
   3   1   5 1238.74  124.39   1-0.17111-0.22974 0.90715 0.97232-0.38443-0.04244
   3  -1  -6 1820.91  121.81   1 0.00005 0.28618 0.23823-0.03310 0.97120 0.95760
  -3   1  -6 1170.50  111.77   1 0.00010 0.17584 0.94871 0.98379 0.31613-0.03487
  -3  -1  -6 1880.52  138.96   1 0.00009 0.09756 0.99983 0.91534-0.01836-0.39067
   3  -1   6 1910.69  149.10   1 0.00009-0.17558 0.99257 0.95738-0.12161 0.22931
   3   1  -6 1180.21  105.92   1 0.00001 0.36329 0.46427 0.31220-0.88569-0.87780
   3  -1  -6 1881.95  131.74   1 0.00000 0.28502 0.33232 0.06076-0.94316-0.95659
   3  -1   6 1923.19  139.52   1 0.00010-0.17575-0.94913-0.98375-0.31485 0.03648
  -3   1  -6 1172.31  113.99   1 0.00009 0.17625-0.99242-0.95756 0.12289-0.22803
  -3  -1  -6 1858.99  142.01   1 0.00007 0.09830-0.90962-0.99421 0.41543 0.04331
  -3  -1   6 1725.96  135.70   1 0.00001-0.36349-0.46259-0.31072 0.88656 0.87825
  -3   1   6 1117.21  148.93   1-0.40014-0.68589-0.73241-0.46076 0.55086 0.56324
   3   1  -6 1229.83  121.69   1-0.47533-0.11149-0.58807-0.74019 0.65438 0.66308
   3  -1  -6 1932.00  152.54   1-0.55415-0.26851-0.33301-0.60442 0.76289 0.75005
  -3  -1  -6 1655.41  127.22   1 0.01140 0.10849 0.99981 0.91527-0.01569-0.38795
   3  -1   6 1980.19  155.94   1 0.06484-0.11020 0.99389 0.95880-0.08927 0.26183
   3   1   6 1123.46  113.52   1-0.20429-0.30128 0.86463 0.94959-0.45898-0.08656
   3  -1  -7 2760.24  155.01   1 0.00004 0.32466 0.18115-0.10988 0.98345 0.93942
   3   1  -7 2402.74  142.44   1 0.00007 0.40271 0.44002 0.26862 0.89798 0.87502
  -3   1  -7 2617.66  166.67   1 0.00010 0.21428 0.95708 0.97247 0.28982-0.09154
  -3  -1  -7 2934.00  176.84   1 0.00009 0.13598 0.99978 0.89560-0.02087-0.42354
   3  -1   7 2949.47  194.59   1 0.00009-0.21368 0.97737 0.96204-0.21153 0.16975
   3   1   7 2432.26  172.83   1 0.00007-0.13550 0.88444 0.98870-0.46663-0.06405
   3   1  -7 2545.15  158.38   1 0.00004 0.40169 0.65579 0.48400-0.75494-0.77742
   3  -1  -7 2874.23  167.62   1 0.00001 0.32341 0.46182 0.17055-0.88697-0.93076
   3  -1   7 2899.48  181.00   1 0.00010-0.21417-0.95749-0.97232-0.28844 0.09333
   3   1   7 2448.48  165.29   1 0.00009-0.13596-0.99976-0.89520 0.02151 0.42440
  -3   1  -7 2497.29  175.20   1 0.00009 0.21470-0.97712-0.96201 0.21266-0.16863
  -3  -1  -7 2813.48  182.33   1 0.00007 0.13678-0.88418-0.98848 0.46712 0.06469
  -3  -1   7 2698.19  177.15   1 0.00004-0.40195-0.65489-0.48331 0.75571 0.77771
  -3   1   7 2224.74  153.51   1 0.00001-0.32390-0.46138-0.17033 0.88719 0.93063
  -3   1   7 2419.53  207.54   1-0.35541-0.67967-0.79641-0.50505 0.48928 0.53195
   3   1  -7 2581.52  177.05   1-0.46509-0.06277-0.61131-0.78314 0.64029 0.61866
   3  -1  -7 2942.98  198.24   1-0.54247-0.21829-0.38467-0.67605 0.74682 0.70376
  -3   1  -7 2122.88  159.11   1-0.14971 0.06371 0.96700 0.98244 0.20611-0.17532
  -3  -1  -7 2511.51  159.87   1 0.01235 0.14783 0.99977 0.89558-0.01701-0.41960
   3  -1   7 3134.77  195.52   1 0.10895-0.10447 0.98266 0.96722-0.15000 0.23143
   3  -1   7 2895.15  184.83   1-0.12675-0.34057 0.95017 0.93521-0.28478 0.09686
   3   1   7 2594.73  169.86   1-0.23541-0.37075 0.81538 0.92013-0.52889-0.12604
   3  -1  -824029.86  876.80   1 0.00004 0.36315 0.13922-0.17152 0.99026 0.91580
   3   1  -823642.07  796.77   1 0.00006 0.44119 0.35057 0.15947 0.93653 0.88312
  -3   1  -823971.57  891.71   1 0.00010 0.25271 0.96190 0.95760 0.27339-0.13832
  -3  -1  -824574.84  944.98   1 0.00009 0.17440 0.99986 0.87600-0.01664-0.44966
   3  -1   825398.73  950.31   1 0.00008-0.25206 0.95605 0.96043-0.29317 0.11847
   3   1   823822.00  878.61   1 0.00006-0.17388 0.85740 0.98137-0.51463-0.08170
   3   1  -824636.82  912.79   1 0.00005 0.44010 0.78121 0.58981-0.62426-0.67707
   3  -1  -824328.22  898.66   1 0.00003 0.36179 0.57060 0.25961-0.82122-0.89537
   3  -1   824591.37  915.11   1 0.00010-0.25259-0.96231-0.95735-0.27194 0.14026
   3   1   822951.12  820.49   1 0.00009-0.17439-0.99984-0.87551 0.01733 0.45062
  -3   1  -822670.03  818.10   1 0.00008 0.25315-0.95567-0.96029 0.29443-0.11723
  -3  -1  -823993.51  893.69   1 0.00006 0.17525-0.85705-0.98106 0.51521 0.08246
  -3  -1   822671.84  809.73   1 0.00005-0.44040-0.78062-0.58931 0.62499 0.67730
  -3   1   821161.95  762.79   1 0.00003-0.36236-0.57033-0.25957 0.82140 0.89515
  -3   1   822660.16  866.43   1-0.31495-0.67767-0.84427-0.53315 0.43359 0.50647
   3   1  -824541.23  924.96   1-0.46041-0.01961-0.62149-0.81303 0.63384 0.58188
   3  -1  -824030.85  924.70   1-0.53347-0.17081-0.41954-0.73064 0.73442 0.66104
  -3   1  -821086.98  767.36   1-0.13728 0.11453 0.97233 0.96811 0.18900-0.22276
   3  -1   824646.46  943.25   1-0.17999-0.43216 0.89670 0.90176-0.40438 0.00767
   3   1   824696.71  921.68   1-0.26446-0.43798 0.75961 0.88442-0.59417-0.16111
   3  -1  -9  820.33   90.47   1 0.00004 0.40164 0.11051-0.21994 0.99387 0.88899
   3   1  -9  860.44   88.74   1 0.00005 0.47967 0.28675 0.07596 0.95800 0.87415
  -3   1  -9  901.33  104.49   1 0.00010 0.29115 0.96418 0.94019 0.26523-0.17683
   3  -1   9  886.08  115.07   1 0.00008-0.29044 0.92992 0.95400-0.36773 0.07428
   3   1   9  943.81  115.04   1 0.00006-0.21225 0.82878 0.97245-0.55956-0.09627
   3  -1  -9  821.27   92.68   1 0.00004 0.40017 0.66111 0.33041-0.75028-0.85480
   3  -1   9  833.79  102.63   1 0.00010-0.29102-0.96459-0.93984-0.26373 0.17889
  -3   1  -9  909.01  112.45   1 0.00008 0.29182-0.92946-0.95370 0.36891-0.07271
  -3  -1   9  768.08  108.83   1 0.00006-0.47887-0.86292-0.65191 0.50532 0.58795
  -3  -1  -9  847.69  108.69   1 0.00006 0.21372-0.82833-0.97204 0.56022 0.09715
  -3   1   9  768.37   99.12   1 0.00004-0.40083-0.66101-0.33054 0.75037 0.85444
   3   1  -9 1002.91  118.21   1-0.45947 0.01980-0.62350-0.83475 0.63255 0.55026
   3  -1  -9  797.09  116.07   1-0.52719-0.12605-0.44194-0.77275 0.72578 0.62206
   3  -1   9  815.31   98.57   1-0.22876-0.51929 0.82675 0.85160-0.51394-0.07146
   3   1   9  921.17  109.81   1-0.29096-0.50280 0.69858 0.84320-0.65369-0.19021
   3  -1  -9  873.35   96.14   1-0.39585 0.00371 0.22881-0.10263-0.88935-0.99471
   3  -1 -10 1634.95  117.50   1 0.00004 0.44013 0.09309-0.25706 0.99565 0.86034
  -3   1 -10 1337.60  121.60   1 0.00010 0.32958 0.96451 0.92083 0.26401-0.20840
   3  -1  10 1649.20  146.36   1 0.00007-0.32887 0.89982 0.94368-0.43625 0.03608
   3   1  10 1328.97  132.11   1 0.00006-0.25063 0.79863 0.96201-0.60181-0.10816
   3  -1  10 1619.38  138.62   1 0.00010-0.32944-0.96493-0.92039-0.26248 0.21058
  -3  -1  10 1573.22  143.68   1 0.00007-0.51734-0.91760-0.68687 0.39750 0.51044
  -3   1 -10 1323.96  129.99   1 0.00007 0.33030-0.89929-0.94324 0.43734-0.03459
  -3  -1 -10 1560.07  132.98   1 0.00005 0.25220-0.79807-0.96149 0.60255 0.10916
  -3   1  10 1199.61  120.54   1 0.00005-0.43930-0.73616-0.38598 0.67680 0.81118
   3   1 -10 1433.36  142.62   1-0.46112 0.05663-0.61997-0.85093 0.63482 0.52220
   3  -1 -10 1577.02  144.00   1-0.52328-0.08366-0.45520-0.80572 0.72039 0.58635
   3   1 -10 1144.97  113.56   1 0.09013 0.60726 0.98817 0.75826-0.12408-0.23718
   3  -1  10 1646.54  127.18   1-0.27290-0.60159 0.74133 0.78637-0.61313-0.14036
   3   1  10 1342.21  122.60   1-0.31503-0.56520 0.63230 0.79674-0.70777-0.21386
   3  -1 -11 2051.22  128.32   1 0.00004 0.47862 0.08528-0.28458 0.99635 0.83061
   3  -1  11 1984.68  154.90   1 0.00007-0.36725 0.86654 0.93011-0.49910 0.00359
   3   1  11 1725.37  145.11   1 0.00005-0.28901 0.76696 0.95006-0.64168-0.11766
  -3  -1  11 1936.41  157.05   1 0.00008-0.55573-0.95410-0.70320 0.29946 0.44345
  -3   1 -11 1823.86  144.10   1 0.00007 0.36877-0.86586-0.92951 0.50028-0.00197
  -3   1  11 1569.26  135.63   1 0.00006-0.47775-0.79830-0.42840 0.60225 0.76695
  -3  -1 -11 1945.46  144.58   1 0.00005 0.29067-0.76629-0.94941 0.64248 0.11878
   3   1 -11 1811.32  152.92   1-0.46459 0.09164-0.61241-0.86309 0.63960 0.49665
   3  -1 -11 1938.76  157.96   1-0.52134-0.04324-0.46158-0.83182 0.71773 0.55335
   3  -1  11 1948.66  140.52   1-0.31140-0.67841 0.64308 0.70793-0.69962-0.19642
   3   1  11 1706.31  129.16   1-0.33661-0.62512 0.56101 0.74527-0.75627-0.23193
   3  -1  1211481.13  521.39   1 0.00006-0.40563 0.83043 0.91371-0.55711-0.02405
   3   1  1211297.36  514.07   1 0.00005-0.32734 0.73378 0.93660-0.67937-0.12493
  -3   1  1210065.18  476.78   1 0.00006-0.51622-0.84960-0.46000 0.52741 0.72243
  -3   1 -1211760.77  528.09   1 0.00006 0.40724-0.82959-0.91295 0.55836 0.02579
  -3  -1 -1211124.35  503.21   1 0.00005 0.32914-0.73297-0.93580 0.68026 0.12624
   3   1 -1211326.41  527.50   1-0.46938 0.12533-0.60175-0.87215 0.64619 0.47291
   3  -1 -1211016.82  532.82   1-0.52102-0.00444-0.46262-0.85257 0.71729 0.52258
   3  -1  1211362.62  517.29   1-0.34425-0.74959 0.53227 0.61693-0.77341-0.23978
   3   1  1211157.25  499.14   1-0.35565-0.68249 0.48479 0.68886-0.79905-0.24428
   3  -1  13  282.69   93.44   1 0.00005-0.44401 0.79177 0.89476-0.61081-0.04739
   3   1  13  257.87   93.36   1 0.00004-0.36572 0.69902 0.92155-0.71509-0.13028
  -3   1 -13  305.90   94.85   1 0.00005 0.44571-0.79074-0.89381 0.61214 0.04924
  -3  -1 -13  238.19   85.74   1 0.00004 0.36762-0.69806-0.92060 0.71603 0.13169
  -3   1 -13  284.02  121.38   1-0.28911 0.15696-0.87062-0.97373 0.39802-0.16493
  -3  -1 -13  259.19  112.91   1-0.37161-0.00375-0.77470-0.99732 0.51159-0.07296
   3   1 -13  295.24   99.14   1-0.47512 0.15807-0.58857-0.87867 0.65409 0.45048
   3  -1 -13  267.00  100.04   1-0.52201 0.03304-0.45938-0.86905 0.71865 0.49361
   3   1  13  258.66   83.95   1-0.37206-0.73722 0.40352 0.62741-0.83590-0.25070
   3  -1  14 1599.77  135.25   1 0.00005-0.48234 0.75066 0.87342-0.66068-0.06682
   3   1  14 1449.28  137.13   1 0.00004-0.40410 0.66262 0.90487-0.74894-0.13377
  -3  -1 -14 1617.49  133.87   1 0.00004 0.40609-0.66152-0.90376 0.74992 0.13527
  -3   1 -14 1358.00  165.70   1-0.31131 0.17328-0.84817-0.97101 0.42858-0.16465
  -3  -1 -14 1569.13  174.88   1-0.38606 0.02030-0.75396-0.99631 0.53149-0.08336
   3   1 -14 1464.23  140.73   1-0.48155 0.19012-0.57325-0.88306 0.66294 0.42900
   3  -1 -14 1595.80  146.40   1-0.52405 0.06948-0.45262-0.88200 0.72145 0.46608
   3  -1  15 1191.80  140.15   1 0.00004-0.52072 0.70722 0.84970-0.70699-0.08276
   3   1  15 1030.23  131.79   1 0.00003-0.44247 0.62452 0.88648-0.78100-0.13547
  -3  -1 -15 1116.80  139.60   1 0.00003 0.44457-0.62324-0.88519 0.78202 0.13705
  -3   1 -15 1023.27  166.54   1-0.33221 0.19074-0.82489-0.96744 0.45736-0.16633
  -3  -1 -15 1111.89  166.31   1-0.40010 0.04477-0.73246-0.99453 0.55082-0.09432
   3   1 -15 1081.35  152.96   1-0.48847 0.22168-0.55603-0.88556 0.67247 0.40820
   3  -1 -15 1127.63  142.44   1-0.52692 0.10509-0.44288-0.89196 0.72540 0.43970
  -3   3   0 4856.84  223.10   1 0.00006 0.02289 0.33294 0.60575 0.94294 0.79531
   3  -3   0 4956.54  227.94   1 0.00008-0.02285 0.60715 0.33433 0.79458 0.94217
  -3  -3   0 5139.11  217.15   1 0.00009-0.21122 0.98518 0.89934-0.17149-0.38284
   3   3   0 4908.33  218.51   1 0.00006 0.21136 0.82577 0.91158-0.56400-0.35262
   3   3   0 4913.93  206.11   1 0.00009 0.21119-0.98530-0.89956 0.17079 0.38233
  -3  -3   0 5129.77  237.60   1 0.00006-0.21065-0.82638-0.91219 0.56311 0.35145
   3   3   0 5219.49  237.30   1-0.30442-0.09366-0.85538-0.76976 0.41909 0.63141
   3  -3   0 5281.19  290.72   1-0.48037-0.50306 0.57608 0.30343 0.66132 0.80922
   3   3   0 4891.44  219.44   1-0.18220 0.02943 0.89399 0.97970-0.40935-0.19829
  -3   3   1 3958.13  200.68   1 0.00005-0.01557 0.22100 0.51346 0.97527 0.85797
  -3   3  -1 3933.81  199.76   1 0.00007 0.06138 0.43635 0.68947 0.89977 0.72170
   3  -3  -1 3599.77  182.24   1 0.00007 0.01573 0.51383 0.22132 0.85788 0.97507
   3  -3   1 3319.74  187.53   1 0.00009-0.06130 0.69940 0.44630 0.71472 0.89277
  -3  -3   1 3863.29  192.42   1 0.00009-0.24957 0.99592 0.92954-0.09015-0.27139
  -3  -3  -1 3763.08  180.92   1 0.00009-0.17285 0.97544 0.86990-0.22022-0.46194
   3   3   1 4051.80  202.92   1 0.00006 0.17298 0.82459 0.93010-0.56572-0.32399
   3   3  -1 4008.32  200.59   1 0.00006 0.24973 0.81893 0.88503-0.57387-0.39286
  -3   3  -1 3807.07  196.81   1 0.00009 0.06235-0.69934-0.44632-0.71478-0.89269
   3   3  -1 3839.89  182.46   1 0.00009 0.24988-0.99616-0.93028 0.08748 0.26857
   3   3   1 4025.25  185.64   1 0.00009 0.17274-0.97555-0.87007 0.21974 0.46165
  -3  -3  -1 3713.29  198.74   1 0.00006-0.17217-0.82505-0.93057 0.56505 0.32307
  -3  -3   1 3755.79  200.11   1 0.00006-0.24913-0.81975-0.88587 0.57270 0.39136
   3   3  -1 4192.44  213.52   1-0.38097-0.13161-0.76143-0.69542 0.52447 0.70644
  -3  -3  -1 3705.37  243.37   1-0.54741-0.72004-0.36384-0.46928 0.75362 0.51118
   3  -3  -1 3567.56  229.75   1-0.52921-0.51356 0.43489 0.14259 0.72855 0.84612
  -3   3  -1 3172.27  217.36   1-0.52716-0.46606 0.44202 0.69500 0.72574 0.54749
   3  -3   1 3758.07  239.64   1-0.41798-0.47904 0.70297 0.44997 0.57543 0.75368
   3   3  -1 3979.29  195.70   1-0.16743 0.08256 0.91129 0.97721-0.37616-0.19553
   3   3   1 3950.79  195.67   1-0.19817-0.02489 0.87321 0.97871-0.44522-0.20373
  -3   3   2 9068.33  338.10   1 0.00004-0.05408 0.10393 0.41610 0.99458 0.90770
   3  -3  -2 9929.03  342.25   1 0.00007 0.05420 0.42442 0.11222 0.90546 0.99220
  -3   3  -2 9702.27  335.98   1 0.00008 0.09993 0.52769 0.76108 0.84943 0.64091
  -3  -3   210551.81  355.94   1 0.00010-0.28798 0.99882 0.95213 0.04838-0.10250
  -3  -3  -210158.18  330.58   1 0.00008-0.13447 0.96879 0.84354-0.24786-0.51994
   3   3   2 9768.21  346.33   1 0.00006 0.13461 0.81830 0.94353-0.57477-0.30268
   3   3  -2 9831.63  336.21   1 0.00005 0.28810 0.79738 0.84377-0.60346-0.45280
  -3   3  -2 9294.75  332.10   1 0.00009 0.10074-0.78492-0.55171-0.61958-0.82792
   3   3  -2 9250.39  314.65   1 0.00010 0.28831-0.99861-0.95250-0.05265 0.09802
   3   3   2 9880.05  324.29   1 0.00008 0.13428-0.96888-0.84366 0.24751 0.51980
  -3  -3  -2 9517.91  345.14   1 0.00006-0.13370-0.81865-0.94388 0.57428 0.30198
  -3  -3   210230.33  369.02   1 0.00006-0.28761-0.79858-0.84499 0.60188 0.45085
  -3  -3  -210237.95  417.76   1-0.49848-0.63262-0.52968-0.65483 0.68625 0.41349
   3   3  -210242.87  365.59   1-0.57960-0.29157-0.16537-0.11887 0.79793 0.94913
   3  -3  -2 9735.32  388.35   1-0.56211-0.50808 0.29185-0.02011 0.77385 0.86106
  -3   3  -2 8672.94  353.92   1-0.48312-0.38368 0.56939 0.80273 0.66511 0.45651
   3  -3   2 9885.15  395.56   1-0.34736-0.44680 0.80662 0.57327 0.47821 0.68681
   3   3  -2 9514.60  328.08   1-0.15434 0.13400 0.92516 0.97128-0.34677-0.19656
   3   3   2 9403.72  322.82   1-0.21490-0.07998 0.84894 0.97423-0.48281-0.21089
   3  -3  -3 2113.84  150.52   1 0.00006 0.09268 0.34299 0.01110 0.93933 0.99563
  -3   3  -3 2294.75  172.34   1 0.00008 0.13839 0.60513 0.81880 0.79612 0.55713
   3  -3   3 1951.06  165.10   1 0.00010-0.13834 0.85840 0.64478 0.51297 0.75173
  -3  -3   3 2271.62  173.14   1 0.00010-0.32632 0.95637 0.92955 0.29215 0.17157
   3   3   3 2331.02  169.41   1 0.00006 0.09623 0.80838 0.95332-0.58865-0.28619
   3   3  -3 2300.36  164.40   1 0.00005 0.32647 0.74233 0.76889-0.67002-0.54973
  -3   3  -3 2249.79  170.74   1 0.00010 0.13917-0.85880-0.64538-0.51230-0.75106
   3   3  -3 2128.62  155.03   1 0.00010 0.32687-0.95408-0.92787-0.29954-0.17945
   3   3   3 2363.16  162.14   1 0.00008 0.09583-0.96530-0.82034 0.26111 0.56377
  -3  -3  -3 2244.50  198.72   1-0.46507-0.56073-0.61137-0.75624 0.64025 0.33715
   3  -3  -3 2202.68  193.66   1-0.58022-0.48789 0.15901-0.17264 0.79878 0.85565
   3   3  -3 2474.23  187.30   1-0.47713-0.15072 0.58384 0.61097 0.65686 0.77717
  -3   3  -3 2119.98  177.80   1-0.43673-0.29892 0.66914 0.88282 0.60124 0.36229
   3  -3   3 2153.77  190.36   1-0.27439-0.41222 0.88431 0.67063 0.37775 0.61670
   3   3  -3 2318.79  168.94   1-0.14355 0.18315 0.93561 0.96194-0.32252-0.20274
   3   3   3 2261.79  170.37   1-0.23204-0.13548 0.82120 0.96627-0.52132-0.21898
   3  -3  -4 2245.13  159.73   1 0.00005 0.13116 0.27197-0.07961 0.96230 0.98815
  -3   3  -4 2231.20  168.96   1 0.00009 0.17685 0.66846 0.86241 0.74374 0.47429
  -3  -3   4 2274.20  196.47   1 0.00009-0.36516 0.67532 0.66837 0.73752 0.64802
   3  -3   4 2117.27  167.56   1 0.00010-0.17689 0.91698 0.72295 0.39891 0.66786
   3   3   4 2334.36  174.21   1 0.00005 0.05786 0.79563 0.96028-0.60577-0.27296
   3   3  -4 2128.41  162.17   1 0.00002 0.36482 0.56079 0.56764-0.82795-0.73802
   3  -3   4 2351.58  171.57   1 0.00009-0.17744-0.66863-0.86223-0.74359-0.47440
   3   3  -4 2087.18  167.26   1 0.00009 0.36529-0.67111-0.66479-0.74135-0.65162
  -3   3  -4 2094.71  161.56   1 0.00010 0.17754-0.91763-0.72395-0.39743-0.66660
   3   3   4 2207.40  160.99   1 0.00008 0.05737-0.96432-0.79962 0.26470 0.59774
  -3  -3  -4 2224.61  173.97   1 0.00005-0.05674-0.79579-0.96044 0.60556 0.27263
  -3  -3  -4 2376.62  206.22   1-0.44403-0.50084-0.65508-0.81971 0.61130 0.27789
  -3   3   4 1916.89  195.57   1-0.55081-0.68149-0.34870 0.00290 0.75829 0.73182
   3  -3  -4 2246.47  187.69   1-0.58714-0.45641 0.04360-0.30772 0.80830 0.83486
  -3   3  -4 2045.42  170.21   1-0.39293-0.21672 0.74361 0.93766 0.54095 0.27168
   3   3  -4 2250.37  169.75   1-0.31991 0.04483 0.83885 0.84651 0.44042 0.53047
   3  -3   4 2321.41  197.14   1-0.20367-0.37989 0.93802 0.74399 0.28039 0.54967
  -3  -3  -4 2342.95  161.06   1-0.10926-0.16748 0.96322 0.79841-0.24547-0.57834
   3   3  -4 2225.62  165.52   1-0.13577 0.22929 0.94260 0.94915-0.30504-0.21570
   3  -3  -5 3526.47  185.34   1 0.00005 0.16965 0.21283-0.15844 0.97708 0.97268
  -3   3  -5 3870.72  212.69   1 0.00009 0.21531 0.71864 0.89288 0.69537 0.39545
   3  -3   5 3351.67  208.80   1 0.00010-0.21532 0.95967 0.78532 0.28111 0.58042
  -3  -3  -5 3607.56  190.83   1 0.00008-0.01935 0.96530 0.78095-0.26110-0.62428
   3   3   5 3666.30  207.80   1 0.00005 0.01948 0.78052 0.96488-0.62512-0.26195
   3  -3  -5 3689.28  193.51   1-0.00000 0.16838 0.23531-0.13601-0.97192-0.97629
   3  -3   5 3749.68  206.56   1 0.00009-0.21583-0.71895-0.89277-0.69505-0.39543
  -3   3  -5 3713.48  213.31   1 0.00010 0.21596-0.96023-0.78635-0.27919-0.57879
   3   3   5 3953.49  204.01   1 0.00008 0.01892-0.96535-0.78091 0.26093 0.62434
  -3  -3  -5 3554.64  214.16   1 0.00005-0.01826-0.78058-0.96494 0.62505 0.26181
  -3   3   5 3689.53  205.41   1-0.00000-0.16889-0.23510 0.13600 0.97196 0.97620
   3   3  -5 4150.04  231.81   1-0.29588 0.10744-0.86401-0.87703 0.40733 0.46826
  -3  -3  -5 3729.57  246.80   1-0.43186-0.45016-0.67824-0.86259 0.59453 0.23084
  -3   3   5 3482.26  250.98   1-0.51937-0.68846-0.46798-0.09646 0.71501 0.71882
   3  -3  -5 3680.04  225.62   1-0.58691-0.41778-0.05171-0.42269 0.80799 0.80422
  -3   3  -5 3492.49  210.23   1-0.35440-0.13980 0.79771 0.97210 0.48790 0.18830
   3   3  -5 4008.03  215.72   1-0.22442 0.17872 0.92421 0.91221 0.30895 0.36868
   3  -3   5 3644.79  240.45   1-0.13777-0.35239 0.97213 0.79775 0.18967 0.48929
  -3  -3  -5 3758.43  192.33   1-0.11258-0.13244 0.96090 0.77632-0.25294-0.61626
   3   3  -5 3825.10  206.67   1-0.13217 0.27133 0.94569 0.93258-0.29695-0.23802
   3   3   5 3368.54  194.55   1-0.26655-0.24657 0.75518 0.93996-0.59886-0.23595
   3  -3  -6 7025.30  297.95   1 0.00004 0.20814 0.16458-0.22641 0.98636 0.95153
  -3   3  -6 7546.19  350.27   1 0.00009 0.25382 0.75712 0.91160 0.65327 0.32332
   3  -3   6 6910.01  328.80   1 0.00010-0.25376 0.98645 0.83180 0.16400 0.49365
  -3  -3  -6 7134.56  309.38   1 0.00008 0.01901 0.96780 0.76375-0.25168-0.64522
   3   3   6 7260.31  329.53   1 0.00005-0.01889 0.76335 0.96742-0.64597-0.25244
   3  -3  -6 6902.99  308.02   1 0.00000 0.20676 0.33541-0.05562-0.94207-0.97680
   3  -3   6 7683.90  345.04   1 0.00009-0.25425-0.75777-0.91179-0.65251-0.32246
  -3   3  -6 7024.56  325.00   1 0.00010 0.25455-0.98672-0.83249-0.16237-0.49208
   3   3   6 7409.53  318.70   1 0.00008-0.01952-0.96785-0.76367 0.25152 0.64530
  -3  -3  -6 7176.09  322.05   1 0.00005 0.02020-0.76332-0.96739 0.64601 0.25245
  -3   3   6 6780.37  308.65   1 0.00000-0.20736-0.33524 0.05557 0.94213 0.97668
   3   3  -6 7439.18  333.33   1-0.31584 0.12600-0.84331-0.87605 0.43481 0.46546
  -3  -3  -6 7230.67  361.60   1-0.42551-0.40530-0.68976-0.89383 0.58580 0.19181
  -3   3   6 6790.90  377.20   1-0.48404-0.69161-0.56713-0.17590 0.66637 0.70052
   3  -3  -6 7037.08  337.30   1-0.58289-0.37533-0.12755-0.51853 0.80247 0.76827
  -3   3  -6 6431.85  305.86   1-0.32215-0.06916 0.83636 0.99111 0.44350 0.11356
   3   3  -6 7418.83  332.06   1-0.16979 0.27173 0.95735 0.92569 0.23375 0.26314
   3  -3   6 7489.95  353.53   1-0.07770-0.33070 0.99122 0.83649 0.10697 0.43693
  -3  -3  -6 7470.19  311.76   1-0.11286-0.09435 0.96071 0.75635-0.25356-0.64731
   3   3  -6 6970.78  323.28   1-0.13345 0.30841 0.94461 0.91172-0.29983-0.27134
   3   3   6 7100.15  334.07   1-0.28334-0.30169 0.71726 0.92184-0.63659-0.24325
   3  -3  -7 1801.83  131.55   1 0.00004 0.24663 0.12697-0.28371 0.99190 0.92664
  -3   3  -7 2296.76  162.52   1 0.00009 0.29225 0.78621 0.92098 0.61795 0.25761
   3  -3   7 1863.70  152.87   1 0.00010-0.29220 0.99869 0.86350 0.05116 0.41107
  -3  -3  -7 1792.10  137.39   1 0.00008 0.05739 0.97131 0.74755-0.23780-0.66171
   3   3   7 1996.47  155.36   1 0.00005-0.05723 0.74441 0.96814-0.66771-0.24377
   3  -3  -7 1879.46  134.77   1 0.00001 0.24514 0.42700 0.01625-0.90424-0.96934
   3  -3   7 2019.18  156.28   1 0.00009-0.29268-0.78693-0.92114-0.61704-0.25657
  -3   3  -7 2144.26  165.63   1 0.00010 0.29298-0.99881-0.86435-0.04860-0.40871
  -3  -3  -7 1849.88  144.87   1 0.00005 0.05868-0.74420-0.96797 0.66795 0.24408
  -3   3   7 2017.19  151.20   1 0.00001-0.24582-0.42688-0.01635 0.90430 0.96917
   3   3  -7 2321.68  158.41   1-0.33303 0.14738-0.82394-0.87627 0.45848 0.45870
  -3  -3  -7 1899.37  172.53   1-0.42321-0.36449-0.69384-0.91764 0.58263 0.15836
  -3   3   7 2031.80  195.59   1-0.44742-0.69360-0.64837-0.23749 0.61596 0.68007
   3  -3  -7 1851.43  163.14   1-0.57736-0.33136-0.18667-0.59734 0.79485 0.73032
  -3   3  -7 1920.83  146.90   1-0.29614-0.00475 0.86376 0.99886 0.40769 0.04741
   3   3  -7 2250.30  157.50   1-0.13842 0.34150 0.97186 0.92055 0.19056 0.18962
   3  -3   7 1914.82  167.82   1-0.02347-0.31486 0.99920 0.86412 0.03231 0.39260
  -3  -3  -7 1976.15  140.41   1-0.11046-0.05359 0.96239 0.73827-0.24817-0.67236
   3   3  -7 2223.48  151.85   1-0.14109 0.33906 0.93787 0.88505-0.31698-0.31892
   3   3   7 2219.80  157.48   1-0.29962-0.35630 0.67606 0.90046-0.67316-0.24940
   3  -3  -7 1976.68  133.03   1-0.39928-0.15488 0.18936-0.22185-0.89705-0.96270
   3  -3  -8 2252.52  146.52   1 0.00004 0.28512 0.09905-0.33134 0.99508 0.89939
  -3   3  -8 2706.41  180.82   1 0.00009 0.33068 0.80739 0.92246 0.59000 0.19927
   3  -3   8 2396.97  186.09   1 0.00009-0.33062 0.99838 0.88288-0.05678 0.33347
   3  -3  -8 2301.09  155.18   1 0.00002 0.28353 0.50996 0.07948-0.86019-0.95566
   3  -3   8 2554.90  175.70   1 0.00009-0.33110-0.80815-0.92256-0.58896-0.19807
  -3   3  -8 2481.65  176.63   1 0.00009 0.33140-0.99822-0.88353 0.05956-0.33094
  -3  -3  -8 2355.79  164.31   1 0.00004 0.09715-0.72332-0.96680 0.69050 0.23631
  -3   3   8 2213.16  163.38   1 0.00002-0.28429-0.50989-0.07966 0.86023 0.95542
   3   3  -8 2566.69  172.28   1-0.34918 0.16974-0.80435-0.87641 0.48071 0.45065
  -3  -3  -8 2366.70  192.64   1-0.42378-0.32655-0.69283-0.93635 0.58342 0.12886
   3  -3  -8 2311.00  178.52   1-0.57170-0.28725-0.23173-0.66208 0.78705 0.69218
   3   3  -8 2439.14  162.78   1-0.12092 0.39738 0.97860 0.90763 0.16648 0.13520
   3  -3   8 2552.16  188.79   1 0.02538-0.30440 0.99906 0.88364-0.03494 0.35567
   3   3  -8 2499.24  162.02   1-0.15866 0.35984 0.92073 0.84812-0.35647-0.38883
   3   3   8 2458.17  172.92   1-0.31525-0.41025 0.63164 0.87586-0.70826-0.25407
   3  -3  -8 2508.64  156.28   1-0.39287-0.11015 0.25798-0.17305-0.88266-0.97873
   3  -3  -9 1495.98  113.26   1 0.00004 0.32361 0.07976-0.37033 0.99681 0.87070
  -3   3  -9 1457.83  130.91   1 0.00010 0.36911 0.82214 0.91749 0.56927 0.14815
   3  -3   9 1514.53  141.69   1 0.00009-0.36866 0.98733 0.89186-0.15867 0.26203
   3   3   9 1275.89  127.25   1 0.00004-0.13398 0.70116 0.96431-0.71299-0.22833
   3  -3  -9 1471.47  114.07   1 0.00003 0.32190 0.58455 0.13436-0.81135-0.93718
   3  -3   9 1673.61  144.16   1 0.00010-0.36953-0.82293-0.91754-0.56813-0.14681
  -3   3  -9 1316.59  130.26   1 0.00009 0.36989-0.98704-0.89189 0.16042-0.26019
  -3  -3  -9 1525.48  136.99   1 0.00004 0.13563-0.70077-0.96395 0.71338 0.22887
  -3   3   9 1167.65  115.60   1 0.00003-0.32276-0.58455-0.13461 0.81135 0.93685
   3   3  -9 1426.55  132.96   1-0.36440 0.19303-0.78456-0.87634 0.50167 0.44132
  -3  -3  -9 1497.48  156.19   1-0.42644-0.29070-0.68809-0.95133 0.58708 0.10223
   3  -3  -9 1453.88  142.12   1-0.56664-0.24375-0.26530-0.71534 0.78008 0.65488
   3   3  -9 1338.98  116.93   1-0.11225 0.44444 0.98158 0.89097 0.15454 0.09292
   3  -3   9 1645.01  154.72   1 0.06950-0.29866 0.99298 0.89721-0.09568 0.32527
   3  -3   9 1604.16  135.84   1-0.12258-0.49161 0.95347 0.85851-0.27541 0.14584
   3   3   9 1340.83  125.73   1-0.33008-0.46341 0.58403 0.84806-0.74158-0.25696
   3  -3  -9 1601.17  120.02   1-0.38441-0.06336 0.32606-0.12479-0.86365-0.99015
   3  -3 -10 5292.29  245.03   1 0.00003 0.36210 0.06811-0.40170 0.99767 0.84114
  -3   3 -10 5448.34  269.47   1 0.00010 0.40754 0.83161 0.90726 0.55534 0.10382
   3  -3  10 5577.05  288.65   1 0.00008-0.40704 0.96745 0.89168-0.25305 0.19801
   3   3  10 4873.68  260.69   1 0.00004-0.17235 0.67708 0.95994-0.73590-0.22088
   3  -3  10 5818.68  290.06   1 0.00010-0.40795-0.83243-0.90724-0.55413-0.10238
  -3   3 -10 5225.66  270.64   1 0.00008 0.40834-0.96694-0.89153 0.25497-0.19602
  -3  -3 -10 5153.39  299.84   1 0.00004 0.17411-0.67659-0.95948 0.73636 0.22153
   3   3 -10 5260.57  266.23   1-0.37896 0.21698-0.76433-0.87584 0.52170 0.43106
  -3  -3 -10 5109.68  292.22   1-0.43064-0.25639-0.68047-0.96344 0.59286 0.07772
   3  -3 -10 5232.99  276.69   1-0.56252-0.20119-0.28955-0.75928 0.77441 0.61887
   3   3  10 4930.15  251.54   1-0.34400-0.51567 0.53323 0.81707-0.77286-0.25782
   3  -3 -10 5495.34  252.90   1-0.37387-0.01448 0.39328-0.07738-0.83996-0.99689
   3  -3 -11 1697.88  127.59   1 0.00003 0.40059 0.06320-0.42631 0.99800 0.81103
   3  -3  11 1806.87  159.61   1 0.00008-0.44542 0.94022 0.88416-0.34054 0.14089
   3   3  11 2073.79  161.71   1 0.00004-0.21073 0.65139 0.95397-0.75874-0.21335
  -3   3 -11 2227.07  165.02   1 0.00008 0.44678-0.93948-0.88381 0.34259-0.13877
  -3  -3 -11 1706.62  147.93   1 0.00004 0.21258-0.65079-0.95339 0.75925 0.21411
   3   3 -11 2272.27  165.02   1-0.39299 0.24146-0.74353-0.87476 0.54102 0.42009
  -3  -3 -11 1681.87  175.45   1-0.43600-0.22323-0.67053-0.97322 0.60023 0.05480
   3  -3 -11 1703.47  156.31   1-0.55946-0.15969-0.30623-0.79564 0.77020 0.58433
   3   3  11 2068.53  152.97   1-0.35690-0.56690 0.47921 0.78287-0.80185-0.25637
   3  -3 -12 1460.91  131.62   1 0.00003 0.43908 0.06429-0.44492 0.99793 0.78054
   3  -3  12 1442.34  149.20   1 0.00007-0.48387 0.90673 0.87049-0.42170 0.09004
   3   3  12 1268.31  141.46   1 0.00003-0.24910 0.62410 0.94640-0.78134-0.20558
  -3  -3 -12 1385.06  147.26   1 0.00003 0.25106-0.62339-0.94569 0.78190 0.20645
   3   3 -12 1422.60  148.62   1-0.40659 0.26638-0.72205-0.87300 0.55974 0.40852
  -3  -3 -12 1322.63  167.33   1-0.44222-0.19095-0.65862-0.98104 0.60880 0.03308
   3  -3 -12 1371.36  160.59   1-0.55744-0.11923-0.31670-0.82579 0.76743 0.55122
   3   3  12 1304.95  130.59   1-0.36867-0.61699 0.42192 0.74539-0.82828-0.25238
   3  -3  13 1334.30  134.16   1 0.00007-0.52225 0.86809 0.85156-0.49639 0.04571
   3   3  13 1183.84  138.58   1 0.00003-0.28748 0.59519 0.93721-0.80358-0.19746
  -3  -3 -13 1298.82  131.58   1 0.00003 0.28953-0.59436-0.93637 0.80419 0.19842
  -3  -3 -13 1186.74  165.65   1-0.44910-0.15931-0.64501-0.98715 0.61827 0.01226
   3  -3 -13 1216.42  133.79   1-0.55640-0.07974-0.32199-0.85077 0.76598 0.51944
   3   3  13 1166.93  120.82   1-0.37918-0.66583 0.36124 0.70453-0.85189-0.24556
   3  -3  14 2427.55  181.38   1 0.00006-0.56063 0.82485 0.82803-0.56534 0.00712
   3   3  14 2102.85  174.26   1 0.00002-0.32585 0.56462 0.92636-0.82534-0.18886
  -3  -3 -14 2285.51  171.47   1 0.00002 0.32800-0.56367-0.92538 0.82599 0.18990
  -3  -3 -14 2077.23  208.32   1-0.45644-0.12883-0.62992-0.99163 0.62837-0.00835
   3  -3 -14 2207.54  187.81   1-0.55621-0.04111-0.32293-0.87139 0.76572 0.48884
   3   3  14 2247.57  176.25   1-0.38829-0.71327 0.29699 0.66009-0.87236-0.23560
   3   3  15  376.20  108.19   1 0.00002-0.36423 0.53236 0.91381-0.84651-0.17966
  -3  -3 -15  319.62  113.36   1 0.00002 0.36648-0.53126-0.91268 0.84720 0.18079
   3  -3 -15  327.52  122.96   1-0.55677-0.00323-0.32013-0.88828 0.76649 0.45928
  -3   5   0 4695.04  237.19   1 0.00004 0.10093 0.09145 0.48385 0.99580 0.86930
  -3  -5   0 4049.52  201.93   1 0.00007-0.28947 0.90946 0.70407-0.41578-0.64844
   3   5   0 4438.57  229.26   1 0.00002 0.28959 0.52575 0.73094-0.85063-0.61794
   3   5   0 4272.65  208.59   1 0.00007 0.28887-0.90972-0.70443 0.41522 0.64832
  -3  -5   0 4226.90  225.85   1 0.00002-0.28876-0.52689-0.73220 0.84992 0.61683
   3   5   0 5028.79  257.33   1-0.50262-0.21338-0.51822-0.31294 0.69196 0.92549
  -3   5   0 4346.37  274.69   1-0.57850-0.47763 0.17624 0.56850 0.79641 0.66982
  -3  -5   0 3744.36  272.07   1-0.54938-0.83863 0.35516 0.14949 0.75633 0.52377
   3  -5   0 4602.60  287.33   1-0.48342-0.58411 0.56865 0.17641 0.66552 0.79227
  -3  -5   0 4271.18  210.05   1-0.12871-0.41887 0.94857 0.74330-0.28918-0.52157
   3   5   0 4381.60  242.63   1-0.28890 0.00122 0.70372 0.90882-0.64908-0.41717
  -3   5   1 9547.07  392.21   1 0.00003 0.06243 0.01113 0.42324 0.99993 0.90386
  -3   5  -1 9426.62  385.29   1 0.00004 0.13943 0.16949 0.54219 0.98553 0.82860
   3  -5  -1 7773.54  352.85   1 0.00007-0.06231 0.43187 0.01972 0.90193 0.99786
   3  -5   1 8615.16  399.36   1 0.00008-0.13943 0.58627 0.21363 0.81011 0.96691
  -3  -5   1 8625.42  341.29   1 0.00007-0.32784 0.91984 0.73415-0.39228-0.59458
  -3  -5  -1 8518.81  342.01   1 0.00007-0.25110 0.90459 0.67955-0.42626-0.68931
   3   5   1 9225.96  379.16   1 0.00002 0.25122 0.56135 0.78625-0.82757-0.56452
   3   5  -1 9046.16  370.89   1 0.00001 0.32796 0.46989 0.65536-0.88272-0.68039
   3   5  -1 8835.09  350.78   1 0.00007 0.32735-0.92015-0.73457 0.39154 0.59433
   3   5   1 9026.49  352.48   1 0.00007 0.25040-0.90474-0.67974 0.42596 0.68938
  -3  -5  -1 9045.25  389.87   1 0.00002-0.25028-0.56221-0.78723 0.82698 0.56358
  -3  -5   1 9009.60  385.28   1 0.00001-0.32725-0.47142-0.65702 0.88190 0.67913
   3   5   110607.79  437.50   1-0.45408-0.20366-0.63483-0.40986 0.62513 0.88911
   3   5  -110212.58  430.37   1-0.55068-0.22301-0.34926-0.16351 0.75812 0.96100
  -3   5   1 8581.90  423.03   1-0.58678-0.52431 0.05582 0.46774 0.80781 0.71155
  -3  -5  -1 8454.27  432.60   1-0.58368-0.83438 0.11672-0.10852 0.80354 0.54038
  -3   5  -1 8691.08  415.66   1-0.56227-0.42317 0.29095 0.66351 0.77407 0.61698
   3  -5  -1 9273.75  446.34   1-0.51939-0.58174 0.46791 0.05603 0.71504 0.81144
  -3  -5   1 8806.61  448.71   1-0.46370-0.79135 0.61436 0.42833 0.63837 0.43621
   3  -5   1 9366.39  458.75   1-0.43928-0.57834 0.66430 0.29171 0.60475 0.76185
  -3  -5   1 9621.16  381.52   1-0.11107-0.43960 0.96196 0.77645-0.24955-0.45150
  -3  -5  -1 9055.87  359.33   1-0.14176-0.39351 0.93726 0.71228-0.31849-0.58120
   3   5  -1 9128.50  385.31   1-0.28577 0.04268 0.71141 0.89670-0.64204-0.44056
   3   5   1 9055.60  385.83   1-0.29363-0.04183 0.69178 0.91670-0.65970-0.39737
  -3   5   219579.45  721.40   1 0.00002 0.02394-0.06978 0.36202 0.99756 0.93186
  -3   5  -219354.25  675.44   1 0.00005 0.17793 0.24369 0.59669 0.96985 0.78249
   3  -5  -218341.53  653.59   1 0.00006-0.02383 0.36284-0.06899 0.93184 0.99733
   3  -5   217490.77  658.01   1 0.00009-0.17788 0.66652 0.31360 0.74548 0.93274
  -3  -5   218098.79  635.49   1 0.00008-0.36621 0.93723 0.77125-0.34869-0.52062
  -3  -5  -217345.14  627.95   1 0.00007-0.21272 0.90377 0.65902-0.42800-0.72141
   3   5   219368.13  717.11   1 0.00003 0.21286 0.58334 0.82797-0.81222-0.51880
   3   5  -218833.16  692.94   1 0.00000 0.36632 0.38193 0.54768-0.92418-0.75222
  -3   5  -217717.30  648.78   1 0.00009 0.17922-0.66670-0.31403-0.74532-0.93234
   3   5  -218692.72  656.13   1 0.00008 0.36636-0.93781-0.77203 0.34713 0.51936
   3   5   218586.44  685.37   1 0.00007 0.21192-0.90389-0.65918 0.42776 0.72149
  -3  -5  -218536.39  675.57   1 0.00003-0.21180-0.58401-0.82872 0.81174 0.51802
  -3  -5   218023.07  657.60   1 0.00000-0.36574-0.38407-0.54996 0.92330 0.75084
   3   5  -220195.53  735.88   1-0.58310-0.21698-0.12477 0.04129 0.80275 0.97530
  -3   5   218245.31  753.87   1-0.58644-0.56237-0.06543 0.36614 0.80734 0.74140
  -3  -5  -218092.71  725.48   1-0.58631-0.79861-0.06867-0.31358 0.80716 0.51368
   3  -5  -217991.61  710.24   1-0.54667-0.57064 0.36705-0.06448 0.75260 0.81865
  -3   5  -217154.11  674.34   1-0.53982-0.36234 0.39535 0.74824 0.74316 0.55572
   3  -5   217935.20  725.83   1-0.38859-0.56598 0.75020 0.39722 0.53497 0.72241
  -3  -5   217867.58  681.62   1-0.32868-0.69461 0.82898 0.66239 0.45249 0.28061
   3   5  -219034.01  689.51   1-0.28461 0.08217 0.71421 0.87968-0.63944-0.46839
   3   5   218725.89  698.71   1-0.29962-0.08615 0.67606 0.92079-0.67316-0.38041
   3  -5  -3 8659.07  360.60   1 0.00006 0.01464 0.30136-0.15017 0.95350 0.98855
  -3   5  -3 8819.75  374.28   1 0.00006 0.21638 0.31236 0.64573 0.94996 0.73225
   3  -5   3 7827.82  370.06   1 0.00009-0.21649 0.74404 0.41093 0.66812 0.88558
  -3  -5   3 8772.40  367.18   1 0.00008-0.40458 0.96276 0.81648-0.27033-0.41189
  -3  -5  -3 8072.04  330.37   1 0.00007-0.17435 0.90602 0.64155-0.42323-0.74699
   3   5   3 8815.57  378.83   1 0.00003 0.17449 0.59574 0.86008-0.80317-0.47939
   3   5  -3 8796.63  384.86   1-0.00000 0.40467 0.23911 0.38515-0.97099-0.82939
   3  -5  -3 9083.83  377.16   1-0.00001 0.01337 0.15049-0.30088-0.98861-0.95356
  -3   5  -3 8445.39  370.95   1 0.00009 0.21760-0.74462-0.41174-0.66747-0.88493
   3   5  -3 8880.59  386.17   1 0.00008 0.40482-0.96339-0.81735 0.26808 0.40993
   3   5   3 8689.24  357.53   1 0.00007 0.17344-0.90611-0.64170 0.42302 0.74708
  -3  -5  -3 8799.11  380.64   1 0.00003-0.17332-0.59623-0.86066 0.80280 0.47876
  -3  -5   3 7944.69  366.19   1-0.00000-0.40423-0.24225-0.38845 0.97021 0.82806
  -3   5   3 9382.26  400.77   1-0.00001-0.01387-0.15055 0.30062 0.98860 0.95364
   3   5   310305.47  446.60   1-0.37251-0.19911-0.77345-0.50904 0.51283 0.83739
  -3  -5  -3 8642.35  437.65   1-0.57528-0.74919-0.20443-0.46892 0.79199 0.46777
  -3   5   3 8481.44  451.29   1-0.57777-0.59193-0.18302 0.26848 0.79541 0.75995
   3   5  -3 9694.39  434.53   1-0.58263-0.17832 0.13107 0.27768 0.80209 0.94397
   3  -5  -3 8994.70  438.75   1-0.56573-0.55132 0.27081-0.18038 0.77884 0.81455
  -3   5  -3 8183.74  386.19   1-0.51340-0.29759 0.48668 0.81995 0.70679 0.48899
   3  -5   3 8427.56  428.63   1-0.33346-0.54923 0.82344 0.49011 0.45907 0.67685
  -3  -5   3 9118.37  411.38   1-0.17867-0.58299 0.95266 0.80573 0.24597 0.10443
  -3  -5  -3 8758.39  346.97   1-0.15680-0.33183 0.92265 0.65810-0.35229-0.67585
   3   5  -3 9117.55  389.45   1-0.28588 0.11923 0.71114 0.85679-0.64229-0.50167
   3   5   3 8778.83  381.36   1-0.30660-0.13146 0.65687 0.92141-0.68884-0.36566
   3  -5  -4 3866.13  205.22   1 0.00005 0.05313 0.24849-0.22273 0.96863 0.97342
  -3   5  -4 3498.54  197.31   1 0.00006 0.25487 0.37486 0.68853 0.92707 0.67893
   3  -5   4 3451.08  236.82   1 0.00009-0.25492 0.81577 0.50237 0.57836 0.82621
  -3  -5   4 4135.68  216.78   1 0.00009-0.44304 0.99251 0.86550-0.12213-0.23370
  -3  -5  -4 3587.05  189.58   1 0.00007-0.13597 0.91050 0.62630-0.41350-0.76762
   3   5   4 3530.69  211.88   1 0.00003 0.13612 0.60103 0.88508-0.79922-0.44507
   3  -5  -4 4078.06  214.69   1-0.00000 0.05175 0.22874-0.24235-0.97348-0.96880
  -3   5  -4 3242.27  202.67   1 0.00010 0.25603-0.81649-0.50340-0.57735-0.82524
   3   5  -4 3709.67  196.61   1 0.00009 0.44329-0.99317-0.86687 0.11660 0.22808
   3   5   4 3445.06  185.96   1 0.00007 0.13496-0.91059-0.62648 0.41329 0.76766
  -3  -5  -4 3859.87  220.49   1 0.00003-0.13484-0.60139-0.88552 0.79895 0.44459
  -3   5   4 3213.70  201.33   1-0.00000-0.05234-0.22877 0.24211 0.97347 0.96883
   3   5   4 4087.32  234.49   1-0.33871-0.20382-0.81721-0.53307 0.46629 0.82115
  -3   5   4 3350.63  260.67   1-0.56193-0.61452-0.29287 0.17831 0.77359 0.76847
  -3  -5  -4 4006.83  266.35   1-0.56060-0.69607-0.30011-0.58429 0.77178 0.41722
   3  -5  -4 4092.60  263.54   1-0.57781-0.52507 0.18267-0.28821 0.79546 0.80076
   3   5  -4 3640.42  220.40   1-0.54728-0.10452 0.36442 0.49144 0.75344 0.86461
  -3   5  -4 3284.81  223.29   1-0.48530-0.23112 0.56400 0.87761 0.66811 0.41996
   3  -5   4 3433.59  261.59   1-0.27623-0.53041 0.88265 0.56899 0.38028 0.62841
  -3  -5   4 4196.00  232.24   1-0.05018-0.49289 0.99634 0.86906 0.06908-0.04212
  -3  -5  -4 3827.83  192.53   1-0.15989-0.29656 0.91944 0.63510-0.35923-0.71322
   3   5  -4 3482.38  196.96   1-0.29013 0.15331 0.70066 0.82650-0.65183-0.54164
   3   5   4 3421.62  209.04   1-0.31432-0.17750 0.63443 0.91879-0.70617-0.35256
   3  -5  -4 3779.52  197.15   1-0.39949-0.34859 0.18662-0.28455-0.89753-0.89303
   3  -5  -5 5431.63  249.36   1 0.00005 0.09162 0.20357-0.28736 0.97905 0.95343
  -3   5  -5 5299.32  255.82   1 0.00007 0.29336 0.43013 0.72411 0.90276 0.62417
  -3  -5   5 5357.18  308.31   1 0.00008-0.48168 0.52887 0.42161 0.84870 0.76826
   3  -5   5 5195.72  276.31   1 0.00010-0.29334 0.87823 0.58454 0.47823 0.75647
  -3  -5   5 6170.07  300.44   1 0.00010-0.48133 0.96337 0.85638 0.26814 0.18690
   3   5   5 5408.73  263.01   1 0.00003 0.09774 0.60085 0.90462-0.79935-0.41484
  -3   5  -5 5324.86  266.74   1 0.00010 0.29438-0.87889-0.58554-0.47700-0.75529
   3   5  -5 4926.42  254.85   1 0.00010 0.48215-0.95571-0.84961-0.29430-0.21375
   3   5   5 6239.42  299.37   1-0.30805-0.21179-0.85160-0.54789 0.42410 0.80929
  -3  -5  -5 5917.99  337.08   1-0.54659-0.64361-0.36742-0.67128 0.75248 0.36759
   3  -5  -5 5744.65  319.78   1-0.58446-0.49333 0.10476-0.38578 0.80462 0.77960
   3   5  -5 5828.09  291.54   1-0.49429-0.01315 0.54092 0.64832 0.68049 0.76124
  -3  -5   5 6176.47  291.84   1 0.04736-0.43373 0.99674 0.88911-0.06521-0.14608
   3   5  -5 5467.52  274.96   1-0.29802 0.18374 0.68033 0.78636-0.66957-0.58980
   3  -5  -617031.77  648.36   1 0.00004 0.13011 0.16673-0.34390 0.98600 0.92994
  -3   5  -618455.43  706.24   1 0.00007 0.33185 0.47778 0.75206 0.87847 0.56944
   3  -5   616083.29  671.54   1 0.00010-0.33188 0.92856 0.65434 0.37117 0.67947
   3   5   618316.64  745.70   1 0.00003 0.05937 0.59631 0.91979-0.80275-0.38787
  -3   5  -617781.15  716.23   1 0.00010 0.33280-0.92953-0.65597-0.36873-0.67744
  -3  -5  -616004.34  678.50   1 0.00003-0.05788-0.59643-0.91997 0.80266 0.38766
  -3  -5  -617847.41  756.62   1-0.53469-0.59306-0.41501-0.73857 0.73611 0.32060
   3  -5  -617941.20  731.76   1-0.58728-0.45774 0.03775-0.47245 0.80850 0.75316
   3   5  -619505.72  808.81   1-0.44029 0.07922 0.66236 0.75011 0.60614 0.65654
   3   5  -618573.83  721.26   1-0.31044 0.20966 0.64589 0.73210-0.69746-0.64812
   3  -5  -7 7688.13  303.27   1 0.00004 0.16859 0.13750-0.39284 0.99050 0.90401
  -3   5  -7 8554.85  333.96   1 0.00007 0.37033 0.51830 0.77265 0.85519 0.51560
   3  -5   7 7577.44  336.57   1 0.00010-0.37032 0.96599 0.71146 0.25857 0.59722
   3   5   7 8290.38  336.76   1 0.00003 0.02100 0.58815 0.93135-0.80875-0.36350
  -3   5  -7 8221.55  343.20   1 0.00010 0.37122-0.96675-0.71298-0.25569-0.59484
  -3  -5  -7 8311.39  337.24   1 0.00003-0.01941-0.58817-0.93142 0.80873 0.36342
  -3  -5  -7 8382.36  390.58   1-0.52556-0.54544-0.44753-0.79080 0.72353 0.27768
   3  -5  -7 8223.98  368.11   1-0.58759-0.41966-0.01853-0.54840 0.80893 0.72327
   3   5  -7 8105.12  325.55   1-0.32855 0.22988 0.58922 0.65562-0.73814-0.71924
   3   5   7 8181.94  325.11   1-0.33984-0.31801 0.54914 0.89294-0.76351-0.31861
   3  -5  -8 3275.22  177.60   1 0.00004 0.20709 0.11531-0.43474 0.99333 0.87642
  -3   5  -8 3221.14  189.04   1 0.00008 0.40879 0.55093 0.78557 0.83454 0.46449
   3  -5   8 3361.77  226.11   1 0.00010-0.40883 0.98944 0.75426 0.14487 0.51375
   3   5   8 3070.79  200.89   1 0.00003-0.01736 0.57691 0.93983-0.81680-0.34119
  -3   5  -8 3068.61  196.56   1 0.00010 0.40982-0.98990-0.75571-0.14170-0.51082
  -3  -5  -8 3449.57  212.77   1 0.00003 0.01906-0.57682-0.93978 0.81686 0.34124
  -3  -5  -8 3551.28  250.15   1-0.51892-0.50032-0.46943-0.83242 0.71438 0.23821
   3  -5  -8 3323.09  225.42   1-0.58646-0.38013-0.06486-0.61439 0.80737 0.69139
   3   5   8 3124.91  194.03   1-0.34856-0.36506 0.51501 0.87863-0.78311-0.30778
   3  -5  -9 4356.64  181.59   1 0.00004 0.24558 0.09954-0.47021 0.99503 0.84769
   3  -5   9 4595.20  242.30   1 0.00010-0.44725 0.99951 0.78400 0.03122 0.43045
   3   5   9 4141.60  214.44   1 0.00002-0.05574 0.56296 0.94560-0.82647-0.32050
  -3   5  -9 4528.88  218.50   1 0.00010 0.44825-0.99961-0.78519-0.02772-0.42725
  -3  -5  -9 4815.51  215.98   1 0.00002 0.05754-0.56278-0.94544 0.82660 0.32066
  -3  -5  -9 4723.96  284.55   1-0.51448-0.45741-0.48335-0.86605 0.70828 0.20178
   3  -5  -9 4599.94  238.77   1-0.58462-0.33989-0.10223-0.67141 0.80484 0.65853
   3  -5   9 4999.52  268.76   1-0.01275-0.45888 0.99976 0.78436 0.01756 0.41736
   3   5   9 4301.25  224.31   1-0.35714-0.41197 0.47812 0.86155-0.80239-0.29664
   3  -5 -10 9112.87  399.18   1 0.00004 0.28407 0.08963-0.49983 0.99597 0.81821
   3  -5  10 9808.23  466.26   1 0.00009-0.48567 0.99682 0.80101-0.07957 0.35000
  -3  -5 -10 9602.08  437.47   1 0.00002 0.09601-0.54630-0.94867 0.83758 0.30132
  -3  -5 -10 9465.24  494.00   1-0.51193-0.41638-0.49113-0.89354 0.70477 0.16794
   3  -5 -10 9331.68  466.94   1-0.58259-0.29934-0.13150-0.72080 0.80205 0.62516
   3  -5  1010284.86  491.82   1 0.03118-0.45333 0.99859 0.80284-0.04292 0.38721
   3   5  10 9060.25  438.97   1-0.36546-0.45862 0.43847 0.84172-0.82108-0.28489
   3  -5 -11 3956.45  240.97   1 0.00004 0.32256 0.08504-0.52412 0.99637 0.78818
   3  -5  11 4306.85  289.07   1 0.00009-0.52365 0.98243 0.80682-0.18660 0.27352
   3   5  11 3999.88  263.20   1 0.00002-0.13248 0.52799 0.95006-0.84925-0.28254
  -3  -5 -11 4102.47  263.66   1 0.00002 0.13449-0.52759-0.94966 0.84949 0.28292
  -3  -5 -11 4147.97  302.75   1-0.51097-0.37694-0.49403-0.91615 0.70344 0.13628
   3  -5 -11 4073.67  276.80   1-0.58068-0.25899-0.15404-0.76303 0.79942 0.59219
   3  -5  11 4738.96  322.16   1 0.07215-0.45074 0.99243 0.81633-0.09933 0.36113
   3   5  11 3879.71  251.17   1-0.37338-0.50487 0.39606 0.81913-0.83887-0.27226
   3  -5 -12  874.19  103.79   1 0.00004 0.36105 0.08530-0.54356 0.99635 0.75773
   3  -5  12  915.77  124.25   1 0.00008-0.56203 0.95775 0.80184-0.28760 0.20289
   3   5  12  858.76  140.05   1 0.00002-0.17086 0.50728 0.94906-0.86177-0.26471
  -3  -5 -12  858.42  120.70   1 0.00002 0.17297-0.50677-0.94855 0.86207 0.26518
  -3  -5 -12  961.11  162.26   1-0.51132-0.33881-0.49297-0.93481 0.70393 0.10644
   3  -5 -12  871.40  131.91   1-0.57908-0.21895-0.17060-0.79927 0.79721 0.55965
   3   5  12  824.03  113.36   1-0.38078-0.55060 0.35086 0.79374-0.85550-0.25846
   3  -5 -13 2815.94  177.40   1 0.00004 0.39955 0.09002-0.55855 0.99593 0.72689
   3   5  13 2601.16  202.41   1 0.00001-0.20923 0.48457 0.94607-0.87475-0.24732
  -3  -5 -13 2855.44  206.23   1 0.00001 0.21144-0.48394-0.94543 0.87509 0.24788
  -3  -5 -13 2804.40  224.16   1-0.51276-0.30177-0.48862-0.95017 0.70591 0.07809
   3  -5 -13 2794.28  222.09   1-0.57789-0.17931-0.18194-0.83030 0.79557 0.52767
   3   5  13 2641.87  191.87   1-0.38755-0.59569 0.30280 0.76550-0.87069-0.24322
   3   5  14 4927.28  227.03   1 0.00001-0.24760 0.45990 0.94112-0.88796-0.23017
  -3  -5 -14 5394.51  235.18   1 0.00001 0.24992-0.45915-0.94035 0.88835 0.23082
  -3  -5 -14 5376.69  282.31   1-0.51510-0.26563-0.48146-0.96272 0.70912 0.05097
   3  -5 -14 5482.16  254.84   1-0.57713-0.14012-0.18872-0.85676 0.79453 0.49631
   3   5  14 4933.24  219.31   1-0.39353-0.64001 0.25178 0.73429-0.88415-0.22625
   3  -7   0 2720.88  193.37   1 0.00007-0.17883 0.47832-0.03376 0.87818 0.98329
  -3  -7   0 2639.43  174.88   1 0.00006-0.36773 0.86380 0.53894-0.50383-0.75783
   3   7   0 2693.38  199.92   1-0.00000 0.36782 0.28080 0.60548-0.95976-0.70576
   3   7   0 2666.37  175.91   1 0.00006 0.36695-0.86403-0.53927 0.50342 0.75797
  -3  -7   0 2799.16  202.88   1-0.00000-0.36687-0.28244-0.60722 0.95928 0.70475
   3   7   0 2987.89  209.16   1-0.52669-0.15932-0.44364-0.11880 0.72509 0.98005
  -3  -7   0 2656.13  241.95   1-0.50991-0.87718 0.49717 0.17189 0.70199 0.44832
   3   7   0 2476.39  180.97   1-0.34548 0.02315 0.52742 0.85192-0.77618-0.52314
   3  -7  -1 1770.99  149.78   1 0.00007-0.14035 0.41726-0.11451 0.90878 0.98345
   3  -7   1 1748.44  156.43   1 0.00008-0.21756 0.54392 0.05174 0.83913 0.97467
  -3  -7  -1 1668.11  129.81   1 0.00006-0.32936 0.86339 0.51883-0.50452-0.78888
  -3  -7   1 1746.00  134.49   1 0.00007-0.40610 0.86830 0.56315-0.49603-0.71967
   3   7   1 1622.99  144.77   1 0.00000 0.32946 0.33176 0.67615-0.94336-0.65899
   3   7  -1 1696.48  151.75   1-0.00001 0.40618 0.21172 0.51668-0.97732-0.75369
   3   7  -1 1692.76  133.21   1 0.00007 0.40543-0.86859-0.56353 0.49552 0.71975
   3   7   1 1625.46  130.76   1 0.00006 0.32847-0.86358-0.51911 0.50419 0.78906
  -3  -7  -1 1830.40  160.66   1 0.00000-0.32838-0.33311-0.67760 0.94288 0.65804
  -3  -7   1 1778.40  161.69   1-0.00001-0.40535-0.21372-0.51880 0.97689 0.75268
   3   7   1 1949.43  165.00   1-0.49499-0.16609-0.53908-0.19453 0.68144 0.96673
  -3  -7  -1 1715.22  193.83   1-0.55122-0.88008 0.34681 0.00190 0.75886 0.47480
  -3  -7   1 1769.57  191.30   1-0.44786-0.85350 0.64750 0.34188 0.61656 0.39324
  -3  -7   1 1710.88  134.88   1-0.14417-0.55110 0.93503 0.63015-0.32390-0.54697
   3   7  -1 1548.83  140.86   1-0.34610 0.06086 0.52494 0.82963-0.77758-0.55497
   3   7   1 1561.41  147.29   1-0.34611-0.01579 0.52492 0.86924-0.77760-0.49413
   3  -7   2 6258.65  280.56   1 0.00008-0.25601 0.61250 0.14003 0.79047 0.95647
  -3  -7   2 6278.80  249.15   1 0.00007-0.44448 0.87815 0.59272-0.47837-0.67165
   3   7   2 6589.03  290.21   1 0.00000 0.29109 0.36896 0.73307-0.92944-0.61470
   3   7  -2 6045.58  324.32   1 0.00007 0.44391-0.87850-0.59316 0.47772 0.67163
  -3  -7  -2 6685.36  298.36   1 0.00000-0.28990-0.37007-0.73427 0.92900 0.61383
  -3  -7  -2 6289.72  337.29   1-0.57469-0.86518 0.20919-0.15537 0.79117 0.47677
   3  -7  -2 6701.65  352.13   1-0.52678-0.62874 0.44335-0.10776 0.72521 0.77010
  -3  -7   2 6560.67  328.55   1-0.36713-0.81100 0.78087 0.49465 0.50542 0.31238
  -3  -7   2 6524.11  263.30   1-0.12789-0.57325 0.94925 0.66397-0.28733-0.48012
   3   7  -2 6177.55  276.28   1-0.34816 0.09713 0.51663 0.80151-0.78221-0.59003
   3   7   2 6177.66  269.24   1-0.34781-0.05582 0.51807 0.88221-0.78142-0.46752
   3  -7   2 6267.85  268.24   1-0.39486-0.65244 0.23890-0.23278-0.88713-0.72119
  -3  -7   3 3890.34  221.03   1 0.00003-0.48274 0.00992-0.25645 0.99995 0.83737
   3  -7   3 3720.96  208.45   1 0.00009-0.29446 0.68209 0.22934 0.73126 0.92773
  -3  -7   3 3844.54  182.95   1 0.00007-0.48285 0.89500 0.62927-0.44606-0.60898
   3   7   3 4026.75  208.71   1 0.00000 0.25272 0.39553 0.77935-0.91845-0.57335
  -3   7  -3 3886.33  209.07   1 0.00009 0.29609-0.68251-0.23019-0.73087-0.92700
  -3  -7  -3 4070.53  215.62   1 0.00000-0.25142-0.39644-0.78034 0.91805 0.57257
  -3  -7  -3 3843.11  254.02   1-0.58533-0.83723 0.08963-0.29449 0.80582 0.46076
   3  -7  -3 4457.82  273.94   1-0.54619-0.60978 0.36912-0.20165 0.75194 0.76648
   3  -7   3 3644.61  267.48   1-0.35112-0.64484 0.80190 0.34894 0.48338 0.68000
  -3  -7   3 4192.49  241.07   1-0.27400-0.75626 0.88466 0.61809 0.37721 0.21450
   3   7   3 3851.60  209.18   1-0.35041-0.09676 0.50736 0.89131-0.78726-0.44294
   3   7  -3 4007.92  208.99   1-0.35185 0.13177 0.50130 0.76636-0.79050-0.62874
   3  -7   3 3971.06  198.12   1-0.39490-0.69080 0.23855-0.21333-0.88721-0.69084
  -3  -7   4 2935.83  202.24   1 0.00005-0.52121 0.18268-0.06399 0.98317 0.85102
   3  -7  -4 3285.02  189.25   1 0.00005-0.02491 0.26903-0.32182 0.96313 0.94647
   3  -7   4 3049.17  205.34   1 0.00009-0.33306 0.75000 0.31711 0.66143 0.88798
  -3  -7   4 3172.98  172.35   1 0.00007-0.52120 0.92071 0.67458-0.39024-0.52275
   3   7   4 3087.42  194.59   1 0.00001 0.21435 0.41369 0.81723-0.91041-0.53495
  -3   7  -4 2976.96  190.06   1 0.00009 0.33446-0.75087-0.31833-0.66044-0.88701
  -3  -7  -4 3274.25  205.07   1 0.00001-0.21294-0.41444-0.81804 0.91007 0.53428
   3   7   4 3690.97  215.13   1-0.39867-0.18571-0.73471-0.33106 0.54885 0.92515
  -3  -7  -4 3223.90  238.86   1-0.58767-0.80118-0.00856-0.41235 0.80904 0.43367
   3  -7  -4 3574.07  255.49   1-0.56076-0.58597 0.29925-0.29118 0.77200 0.75620
   3  -7   4 3157.71  250.44   1-0.30409-0.63621 0.85572 0.42241 0.41864 0.64560
  -3  -7   4 3545.78  218.40   1-0.17859-0.69926 0.95270 0.70579 0.24586 0.11350
   3   7   4 3076.50  200.41   1-0.35376-0.13843 0.49312 0.89688-0.79478-0.42003
   3   7  -4 3008.09  181.76   1-0.35734 0.16461 0.47723 0.72247-0.80284-0.67151
   3  -7   4 3509.44  199.74   1-0.39425-0.72849 0.24488-0.18718-0.88577-0.65898
   3  -7  -5 1324.47  124.23   1 0.00005 0.01359 0.23260-0.37797 0.97257 0.92571
   3  -7   5 1196.93  142.61   1 0.00009-0.37148 0.81437 0.40118 0.58034 0.83728
  -3  -7   5 1347.64  109.63   1 0.00008-0.55957 0.95763 0.73121-0.28799-0.39013
   3   7   5 1192.13  128.72   1 0.00001 0.17598 0.42510 0.84835-0.90514-0.49932
  -3   7  -5 1149.95  125.82   1 0.00009 0.37289-0.81534-0.40259-0.57898-0.83598
  -3  -7  -5 1323.65  140.09   1 0.00001-0.17446-0.42569-0.84900 0.90486 0.49875
  -3  -7  -5 1314.77  170.17   1-0.58543-0.76053-0.08780-0.51125 0.80595 0.40025
   3  -7  -5 1460.75  174.78   1-0.57122-0.55805 0.23513-0.37496 0.78639 0.74025
   3  -7   5 1273.15  176.13   1-0.25552-0.62605 0.90053 0.48689 0.35177 0.60909
  -3  -7   5 1395.20  128.82   1-0.08917-0.64822 0.98842 0.76116 0.12275 0.02073
   3   7   5 1140.30  128.27   1-0.35769-0.18070 0.47563 0.89921-0.80363-0.39845
   3   7  -5 1172.50  120.01   1-0.36478 0.19550 0.44189 0.66732-0.81955-0.71865
   3  -7   5 1438.78  128.59   1-0.39275-0.76531 0.25911-0.15314-0.88238-0.62516
   3  -7  -6 5170.78  210.90   1 0.00005 0.05208 0.20194-0.42834 0.97939 0.90211
  -3  -7   6 5382.23  274.53   1 0.00009-0.59833 0.75715 0.55054 0.65323 0.58214
   3  -7   6 4728.15  254.60   1 0.00010-0.40991 0.87227 0.47880 0.48901 0.77635
  -3  -7   6 5494.14  224.24   1 0.00009-0.59810 0.99843 0.79110-0.05590-0.12815
   3   7   6 5172.69  241.86   1 0.00001 0.13761 0.43094 0.87391-0.90237-0.46618
  -3   7  -6 5226.11  239.16   1 0.00010 0.41122-0.87316-0.48012-0.48743-0.77483
  -3  -7  -6 5094.39  235.73   1 0.00001-0.13598-0.43139-0.87441 0.90216 0.46573
  -3  -7  -6 5267.97  288.25   1-0.58095-0.71761-0.15109-0.59422 0.79979 0.36321
   3  -7  -6 5810.69  286.49   1-0.57836-0.52683 0.17749-0.45228 0.79623 0.71964
   3  -7   6 5262.59  307.14   1-0.20655-0.61547 0.93620 0.54221 0.28436 0.57201
  -3  -7   6 5541.21  232.19   1-0.00999-0.60744 0.99985 0.79224 0.01375-0.05793
   3   7   6 4650.53  262.04   1-0.36209-0.22342 0.45509 0.89848-0.81349-0.37788
   3  -7   6 5654.71  232.94   1-0.39003-0.80093 0.28283-0.10960-0.87628-0.58863
   3  -7  -7 2161.95  149.88   1 0.00004 0.09057 0.17714-0.47284 0.98418 0.87647
   3  -7   7 2034.05  179.84   1 0.00010-0.44845 0.92093 0.54684 0.38971 0.70700
   3   7   7 1976.92  173.26   1 0.00001 0.09924 0.43213 0.89481-0.90180-0.43525
  -3   7  -7 1980.71  163.96   1 0.00010 0.44964-0.92216-0.54892-0.38679-0.70462
  -3  -7  -7 2270.85  206.65   1-0.57580-0.67402-0.20016-0.66298 0.79270 0.32579
   3  -7  -7 2402.43  208.58   1-0.58294-0.49301 0.12690-0.52253 0.80253 0.69562
   3  -7   7 2300.21  221.13   1-0.15804-0.60535 0.96315 0.58882 0.21758 0.53557
  -3  -7   7 2389.63  165.44   1 0.05809-0.57774 0.99510 0.80714-0.07997-0.12133
   3  -7   7 2499.14  176.29   1-0.38549-0.83471 0.31830-0.05432-0.86607-0.54799
   3  -7  -8 1628.26  135.08   1 0.00004 0.12906 0.15785-0.51184 0.98746 0.84932
   3  -7   8 1615.44  169.50   1 0.00010-0.48688 0.95926 0.60486 0.28249 0.63014
   3   7   8 1530.73  156.23   1 0.00001 0.06087 0.42934 0.91174-0.90314-0.40622
  -3  -7  -8 1718.55  183.75   1-0.57081-0.63059-0.23796-0.72045 0.78583 0.28859
   3  -7  -8 1811.96  186.30   1-0.58566-0.45732 0.08322-0.58586 0.80627 0.66903
   3  -7   8 1804.07  197.82   1-0.11067-0.59636 0.98210 0.62742 0.15236 0.50068
   3   7   8 1419.98  144.69   1-0.37171-0.30970 0.40545 0.88847-0.83512-0.33866
   3  -7  -9 1337.35  120.07   1 0.00004 0.16755 0.14370-0.54570 0.98961 0.82105
   3  -7   9 1409.06  168.79   1 0.00010-0.52532 0.98538 0.65068 0.17032 0.54831
   3   7   9 1419.98  157.92   1 0.00001 0.02250 0.42308 0.92520-0.90609-0.37880
  -3  -7  -9 1491.30  158.65   1 0.00001-0.02054-0.42316-0.92530 0.90605 0.37867
  -3  -7  -9 1462.17  186.21   1-0.56644-0.58778-0.26651-0.76869 0.77981 0.25223
   3  -7  -9 1461.47  166.44   1-0.58707-0.42033 0.04620-0.64255 0.80821 0.64065
   3  -7   9 1577.17  187.17   1-0.06489-0.58897 0.99388 0.65885 0.08934 0.46799
   3   7   9 1381.00  147.93   1-0.37671-0.35302 0.37654 0.87938-0.84634-0.31945
   3  -7 -10 2906.94  148.92   1 0.00004 0.20604 0.13434-0.57477 0.99093 0.79194
   3  -7  10 3026.49  201.39   1 0.00010-0.56388 0.99842 0.68292 0.05618 0.46438
   3   7  10 2816.42  194.54   1 0.00001-0.01587 0.41374 0.93558-0.91039-0.35274
  -3  -7 -10 3071.22  185.48   1 0.00001 0.01792-0.41372-0.93556 0.91040 0.35270
  -3  -7 -10 3007.81  217.88   1-0.56289-0.54579-0.28746-0.80933 0.77492 0.21701
   3  -7 -10 3038.39  208.55   1-0.58763-0.38249 0.01541-0.69299 0.80898 0.61110
   3  -7  10 3312.36  230.34   1-0.02098-0.58345 0.99936 0.68398 0.02889 0.43788
   3   7  10 2718.12  171.52   1-0.38167-0.39631 0.34500 0.86765-0.85749-0.30017
   3  -7 -11 1670.06  143.50   1 0.00004 0.24453 0.12941-0.59940 0.99159 0.76217
  -3  -7 -11 1768.04  166.91   1 0.00001 0.05640-0.40149-0.94304 0.91586 0.32784
  -3  -7 -11 1823.99  210.04   1-0.56023-0.50469-0.30212-0.84367 0.77126 0.18301
   3  -7 -11 1784.48  188.76   1-0.58767-0.34413-0.00961-0.73769 0.80904 0.58084
   3  -7  11 1928.66  204.47   1 0.02090-0.57995 0.99936 0.70363-0.02878 0.41054
   3   7  11 1420.40  154.95   1-0.38649-0.43947 0.31084 0.85331-0.86833-0.28058
   3  -7 -12  980.91  110.35   1 0.00004 0.28303 0.12861-0.61990 0.99169 0.73185
  -3  -7 -12 1025.91  122.32   1 0.00000 0.09488-0.38672-0.94797 0.92219 0.30386
  -3  -7 -12 1090.81  172.27   1-0.55845-0.46447-0.31151-0.87275 0.76881 0.15023
   3  -7 -12 1039.68  159.98   1-0.58744-0.30551-0.02939-0.77712 0.80872 0.55021
   3  -7  12 1158.24  171.35   1 0.06075-0.57849 0.99464 0.71856-0.08364 0.38601
   3   7  12  867.84  127.02   1-0.39107-0.48237 0.27407 0.83635-0.87860-0.26042
  -3  -9   0 1439.81  145.60   1 0.00002-0.44530-0.08531-0.53048 0.99635 0.72131
   3  -9   0 1394.47  143.50   1 0.00007-0.25687 0.48941-0.14230 0.87205 0.95591
  -3  -9   0 1380.88  174.62   1-0.46980-0.91506 0.60081 0.15594 0.64677 0.37194
   3  -9   0 1701.57  208.93   1-0.45149-0.70815 0.64016 0.00875 0.62156 0.70599
   3   9   0 1282.10  130.13   1-0.37744 0.06971 0.37210 0.81602-0.84798-0.57380
  -3  -9   1 4721.93  274.24   1 0.00003-0.48379-0.01684-0.44228 0.99985 0.75520
   3  -9  -1 4632.65  261.43   1 0.00007-0.21839 0.43821-0.21320 0.89887 0.95228
   3  -9   1 4582.95  270.85   1 0.00008-0.29568 0.54468-0.06704 0.83864 0.95292
   3   9   1 4957.89  281.29   1-0.00001 0.40769 0.14060 0.60448-0.99006-0.68438
  -3  -9  -1 4616.42  270.27   1-0.00001-0.40648-0.14228-0.60624 0.98982 0.68354
  -3  -9  -1 4668.36  316.14   1-0.51026-0.91714 0.49615 0.03163 0.70247 0.39729
   3  -9  -1 5623.44  368.84   1-0.47887-0.69716 0.57969-0.07137 0.65926 0.71334
   3  -9   1 5661.02  370.12   1-0.42025-0.71529 0.69903 0.08727 0.57856 0.69334
  -3  -9   1 4609.16  312.98   1-0.41821-0.90184 0.70257 0.27737 0.57574 0.33127
   3   9  -1 4387.81  248.21   1-0.37889 0.10658 0.36303 0.78712-0.85126-0.60750
   3   9   1 4475.84  265.48   1-0.37678 0.03203 0.37610 0.83982-0.84650-0.54190
  -3  -9   2 5968.40  324.83   1 0.00003-0.52227 0.06881-0.33691 0.99762 0.78339
   3  -9  -2 5966.47  312.51   1 0.00006-0.17990 0.39155-0.27955 0.92015 0.94312
   3  -9   2 5786.00  313.99   1 0.00008-0.33413 0.60304 0.01103 0.79770 0.94246
  -3  -9   2 5424.03  271.73   1 0.00006-0.52273 0.86375 0.45879-0.50391-0.71850
   3   9   2 5740.21  312.88   1-0.00001 0.36933 0.18350 0.66709-0.98301-0.64697
  -3  -9  -2 6128.67  324.26   1-0.00001-0.36800-0.18496-0.66863 0.98274 0.64614
  -3  -9  -2 5727.12  362.03   1-0.54008-0.90856 0.39430-0.08984 0.74352 0.40796
   3  -9  -2 6904.06  397.57   1-0.50230-0.68222 0.51911-0.15160 0.69152 0.71525
   3  -9   2 7145.47  430.87   1-0.38555-0.71884 0.75472 0.16248 0.53078 0.67591
  -3  -9   2 6433.40  374.57   1-0.35689-0.87872 0.79449 0.38864 0.49133 0.27713
   3   9   2 5296.81  298.30   1-0.37686-0.00636 0.37562 0.85916-0.84668-0.51165
   3   9  -2 5211.43  280.75   1-0.38121 0.14259 0.34807 0.75235-0.85645-0.64313
  -3  -9   3 4780.46  315.93   1 0.00004-0.56075 0.17529-0.21073 0.98451 0.80071
   3  -9  -3 4775.88  296.97   1 0.00006-0.14142 0.34978-0.34101 0.93682 0.92935
   3  -9   3 4668.56  304.35   1 0.00009-0.37258 0.66335 0.09106 0.74830 0.92351
   3   9   3 4724.74  306.07   1-0.00000 0.33096 0.21683 0.72014-0.97620-0.60979
  -3   9  -3 4433.70  281.58   1 0.00009 0.37453-0.66391-0.09214-0.74780-0.92262
  -3  -9  -3 4870.09  310.33   1-0.00000-0.32951-0.21809-0.72147 0.97592 0.60901
  -3  -9  -3 4640.90  331.51   1-0.56068-0.89079 0.29968-0.20412 0.77189 0.40598
   3  -9  -3 5316.26  366.78   1-0.52187-0.66344 0.45987-0.23048 0.71845 0.71183
   3  -9   3 5152.77  370.72   1-0.34770-0.71938 0.80620 0.23360 0.47868 0.65415
  -3  -9   3 5199.81  349.46   1-0.28771-0.84793 0.87197 0.48576 0.39609 0.21222
   3   9   3 4373.98  280.15   1-0.37759-0.04542 0.37115 0.87451-0.84833-0.48286
   3   9  -3 4552.10  285.51   1-0.38440 0.17773 0.32618 0.71064-0.86362-0.68072
  -3  -9   4  436.70  107.25   1 0.00006-0.59928 0.30692-0.05930 0.95173 0.79833
   3  -9   4  452.11  121.74   1 0.00009-0.41104 0.72414 0.17156 0.68964 0.89532
   3   9   4  470.31  120.12   1-0.00000 0.29259 0.24217 0.76520-0.97023-0.57345
  -3   9  -4  445.08  102.60   1 0.00009 0.41289-0.72478-0.17277-0.68897-0.89424
  -3  -9  -4  473.16  121.35   1-0.00000-0.29103-0.24326-0.76634 0.96996 0.57273
  -3  -9  -4  437.64  134.05   1-0.57399-0.86572 0.21471-0.30875 0.79020 0.39395
   3  -9   4  452.33  168.34   1-0.30739-0.71746 0.85229 0.29935 0.42319 0.62899
  -3  -9   4  507.66  115.83   1-0.21457-0.81320 0.93096 0.56442 0.29540 0.14189
   3   9   4  364.90  116.94   1-0.37889-0.08505 0.36306 0.88623-0.85124-0.45535
   3  -9   5 3781.07  215.60   1 0.00009-0.44963 0.78324 0.25056 0.62171 0.85734
   3   9   5 3874.25  203.05   1-0.00000 0.25422 0.26078 0.80352-0.96539-0.53826
  -3   9  -5 3691.59  189.21   1 0.00009 0.45132-0.78436-0.25215-0.62030-0.85599
  -3  -9  -5 3912.24  204.19   1-0.00000-0.25255-0.26170-0.80448 0.96514 0.53760
  -3  -9  -5 3883.51 1468.40   1-0.58194-0.83503 0.13967-0.40334 0.80114 0.37419
   3  -9   5 3924.95  267.77   1-0.26526-0.71375 0.89233 0.35906 0.36519 0.60135
  -3  -9   5 4230.50  210.42   1-0.14133-0.77834 0.97065 0.62376 0.19457 0.07139
   3   9   5 3598.50  202.90   1-0.38067-0.12516 0.35164 0.89462-0.85524-0.42892
   3  -9  -6 4711.23  192.82   1 0.00005-0.02598 0.25448-0.49540 0.96707 0.86827
   3  -9   6 4502.21  241.35   1 0.00010-0.48805 0.83946 0.32649 0.54341 0.80944
   3   9   6 4832.26  235.79   1-0.00000 0.21585 0.27364 0.83609-0.96183-0.50433
  -3  -9  -6 4729.95  227.57   1-0.00000-0.21407-0.27441-0.83690 0.96161 0.50374
  -3  -9  -6 4773.79  269.84   1-0.58599-0.80069 0.07609-0.48658 0.80673 0.34946
   3  -9   6 4797.55  286.33   1-0.22208-0.70894 0.92585 0.41223 0.30573 0.57223
  -3  -9   6 4203.49  468.78   1-0.07104-0.74644 0.99266 0.66542 0.09780 0.00495
   3   9   6 4490.73  231.24   1-0.38283-0.16565 0.33712 0.89991-0.86010-0.40336
   3  -9  -7 3993.41  188.91   1 0.00005 0.01254 0.23280-0.53684 0.97252 0.84358
   3  -9   7 3741.32  235.40   1 0.00010-0.52648 0.89031 0.39705 0.45534 0.75177
   3   9   7 3895.70  209.37   1-0.00000 0.17748 0.28155 0.86372-0.95954-0.47168
  -3  -9  -7 4019.53  206.99   1-0.00000-0.17559-0.28218-0.86438 0.95936 0.47117
  -3  -9  -7 4029.91  253.75   1-0.58755-0.76384 0.02259-0.55974 0.80887 0.32128
   3  -9   7 4162.29  280.50   1-0.17843-0.70369 0.95279 0.45882 0.24565 0.54248
   3   9   7 3625.29  210.14   1-0.38530-0.20645 0.31967 0.90229-0.86564-0.37847
   3  -9  -8  340.75  108.06   1 0.00005 0.05103 0.21525-0.57409 0.97655 0.81719
   3  -9   8  332.74  125.03   1 0.00010-0.56501 0.93329 0.45932 0.35912 0.68540
   3   9   8  435.69  130.59   1-0.00000 0.13911 0.28514 0.88703-0.95848-0.44025
  -3  -9  -8  320.67  120.67   1-0.00000-0.13711-0.28564-0.88754 0.95833 0.43983
  -3  -9  -8  326.84  148.60   1-0.58756-0.72545-0.02173-0.62373 0.80888 0.29097
   3  -9   8  337.00  144.98   1-0.13489-0.69854 0.97329 0.49898 0.18571 0.51288
   3  -9  -9 2550.49  153.73   1 0.00005 0.08952 0.20200-0.60705 0.97938 0.78959
   3   9   9 2723.26  189.31   1-0.00000 0.10074 0.28492 0.90652-0.95855-0.40995
  -3  -9  -9 2499.51  202.47   1-0.58671-0.68621-0.05788-0.67954 0.80772 0.25949
   3  -9  -9 2887.20  233.91   1-0.57790-0.48916 0.18180-0.62651 0.79559 0.60678
   3  -9   9 2706.62  234.63   1-0.09191-0.69395 0.98769 0.53302 0.12654 0.48404
   3   9   9 2456.82  176.11   1-0.39077-0.28858 0.27656 0.89881-0.87795-0.32992
  -3 -11   0   66.50  108.52   1 0.00004-0.52332 0.07960-0.48519 0.99682 0.70051
   3 -11   0   75.68  107.56   1 0.00007-0.33535 0.52393-0.22704 0.85175 0.91432
   3 -11   0   70.71  142.58   1-0.42468-0.75934 0.69124-0.05975 0.58465 0.64793
   3  11   0   71.19   95.35   1-0.39565 0.13000 0.23088 0.79419-0.88890-0.59358
  -3 -11  -1 2640.77  235.81   1 0.00003-0.48483 0.02584-0.55865 0.99966 0.67293
  -3 -11   1 2590.53  248.72   1 0.00004-0.56180 0.14423-0.40085 0.98954 0.72366
   3 -11  -1 2543.66  214.85   1 0.00007-0.29642 0.47977-0.29128 0.87739 0.90955
   3 -11   1 2536.38  223.26   1 0.00008-0.37380 0.57148-0.15978 0.82061 0.91364
   3 -11  -1 3095.99  303.17   1-0.45030-0.74658 0.64259-0.12806 0.61992 0.65284
   3 -11   1 3033.54  298.56   1-0.39622-0.76907 0.73854 0.00702 0.54548 0.63911
   3  11   1 2138.57  193.21   1-0.39482 0.09250 0.23929 0.82242-0.88704-0.56130
   3  11  -1 2232.67  203.85   1-0.39690 0.16708 0.21753 0.76103-0.89170-0.62682
  -3 -11  -2 5051.18  369.65   1 0.00003-0.44634-0.01848-0.62269 0.99982 0.64266
   3 -11  -2 4893.36  343.56   1 0.00007-0.25794 0.43939-0.35135 0.89829 0.90000
   3 -11   2 4836.90  353.58   1 0.00008-0.41225 0.62184-0.08971 0.78314 0.90663
  -3 -11  -2 4543.06  401.17   1-0.49624-0.94274 0.53573-0.06803 0.68317 0.32649
   3 -11  -2 6175.28  474.32   1-0.47291-0.73082 0.59369-0.19661 0.65105 0.65363
   3 -11   2 5690.65  439.62   1-0.36494-0.77618 0.78383 0.07195 0.50241 0.62638
   3  11   2 4252.88  325.86   1-0.39442 0.05458 0.24331 0.84626-0.88613-0.52995
  -3 -11  -3 2609.64  181.71   1 0.00002-0.40785-0.05453-0.67849 0.99851 0.61098
   3 -11  -3 2431.89  171.58   1 0.00006-0.21946 0.40300-0.40744 0.91519 0.88647
   3 -11   3 2477.47  187.47   1 0.00009-0.45071 0.67421-0.01762 0.73853 0.89249
  -3 -11  -3 2314.19  201.94   1-0.52150-0.92960 0.46105-0.16232 0.71795 0.33087
   3 -11  -3 2992.33  248.99   1-0.49257-0.71210 0.54546-0.26450 0.67811 0.65033
   3 -11   3 2825.38  237.08   1-0.33118-0.78081 0.82609 0.13386 0.45594 0.61025
   3  11   3 1875.65  161.60   1-0.39441 0.01626 0.24339 0.86615-0.88611-0.49951
  -3 -11  -4   81.50  104.40   1 0.00002-0.36936-0.08355-0.72721 0.99650 0.57855
   3 -11  -4   83.34  116.35   1 0.00006-0.18098 0.37070-0.45943 0.92875 0.86957
   3 -11   4   98.67  104.26   1 0.00009-0.48916 0.72760 0.05547 0.68600 0.87042
  -3 -11  -4   70.69  115.92   1-0.54093-0.91066 0.39089-0.25214 0.74470 0.32728
   3 -11  -4   73.40  168.51   1-0.50939-0.69055 0.49872-0.33090 0.70127 0.64314
   3 -11   4  138.64  167.51   1-0.29531-0.78333 0.86457 0.19200 0.40655 0.59120
   3  11   4   57.78  101.04   1-0.39477-0.02242 0.23986 0.88243-0.88691-0.46989
  -4   0   060254.17 2516.13   1 0.00009-0.12529 0.79913 0.92380 0.60114 0.36177
   4   0   059007.44 2495.35   1 0.00010 0.12534 0.95079 0.82618 0.30982 0.54927
   4   0   060006.69 2508.85   1 0.00009 0.12523-0.79874-0.92356-0.60167-0.36240
  -4   0   049681.63 2144.82   1-0.51353-0.63921 0.48629 0.61066 0.70696 0.46743
   4   0   060570.90 2559.59   1-0.30397-0.17827 0.85585 0.73158 0.41847 0.65802
  -4   0   1 2952.53  177.51   1 0.00009-0.16402 0.70679 0.85118 0.70741 0.49857
   4   0  -1 2977.18  168.20   1 0.00010 0.16378 0.91176 0.76746 0.41071 0.61982
   4   0   1 2816.25  167.85   1 0.00010 0.08691 0.97752 0.87260 0.21081 0.48062
   4   0  -1 3029.63  169.71   1 0.00009 0.16365-0.70639-0.85102-0.70781-0.49897
   4   0   1 2858.19  161.98   1 0.00010 0.08680-0.86293-0.96795-0.50532-0.23562
  -4   0   1 2760.79  166.20   1 0.00010-0.16348-0.91095-0.76632-0.41250-0.62129
  -4   0   1 2451.62  214.83   1-0.57798-0.74187 0.18107 0.32518 0.79570 0.58640
  -4   0  -1 2532.09  181.70   1-0.41915-0.50650 0.70095 0.80566 0.57704 0.30718
   4   0  -1 2900.80  185.93   1-0.42797-0.26386 0.68535 0.54132 0.58918 0.79833
   4   0   1 2903.09  174.60   1-0.18788-0.10059 0.94751 0.84291 0.25866 0.52856
  -4   0   217593.94  530.56   1 0.00008-0.20248 0.58086 0.74496 0.81399 0.63563
   4   0  -217285.86  507.38   1 0.00010 0.20234 0.85977 0.69568 0.51068 0.68926
  -4   0  -217643.16  520.48   1 0.00010-0.04826 0.90599 0.99121 0.42330 0.12314
   4   0   216508.05  492.23   1 0.00010 0.04851 0.99323 0.90799 0.11609 0.41615
  -4   0   216501.33  488.89   1 0.00010-0.20188-0.85881-0.69438-0.51228-0.69070
   4   0   216813.45  479.39   1 0.00010 0.04843-0.90592-0.99118-0.42343-0.12335
  -4   0  -216682.78  496.66   1 0.00010-0.04802-0.99321-0.90794-0.11632-0.41632
  -4   0   215067.53  561.82   1-0.58127-0.78353-0.14743 0.01660 0.80023 0.62112
   4   0  -217433.61  562.37   1-0.52618-0.32374 0.44541 0.28172 0.72438 0.90322
  -4   0  -214882.24  481.87   1-0.32984-0.37875 0.82765 0.91261 0.45408 0.15386
   4   0   216911.23  501.93   1-0.09330-0.04439 0.98731 0.90236 0.12844 0.42867
  -4   0   3 3296.49  191.45   1 0.00007-0.24101 0.42153 0.60509 0.90681 0.75879
   4   0  -3 3367.24  173.06   1 0.00009 0.24077 0.79665 0.61285 0.60443 0.75261
  -4   0  -3 3447.97  217.43   1 0.00010-0.00983 0.93406 0.99959 0.35710 0.02659
   4   0   3 3291.45  182.85   1 0.00010 0.01009 0.99964 0.93409 0.02647 0.35688
  -4   0   3 3153.42  203.13   1 0.00009-0.24031-0.79527-0.61104-0.60624-0.75423
   4   0   3 3244.55  167.41   1 0.00010 0.01000-0.93413-0.99960-0.35691-0.02639
  -4   0  -3 3346.13  189.16   1 0.00010-0.00960-0.99965-0.93416-0.02632-0.35672
  -4   0   3 3132.82  230.05   1-0.53520-0.77584-0.41311-0.22915 0.73681 0.58784
   4   0  -3 3430.01  200.92   1-0.57622-0.33553 0.19664 0.01322 0.79328 0.94193
  -4   0  -3 3039.10  208.72   1-0.25959-0.27011 0.89715 0.96245 0.35738 0.02681
   4   0   3 3245.62  181.50   1-0.01898-0.00846 0.99947 0.93418 0.02613 0.35670
  -4   0   432379.30 1425.27   1 0.00005-0.27949 0.23515 0.43835 0.97195 0.85424
   4   0  -433435.94 1078.28   1 0.00009 0.27957 0.72505 0.52152 0.68869 0.80613
  -4   0  -435622.01 1115.34   1 0.00010 0.02860 0.95221 0.99805 0.30543-0.05542
   4   0   433180.75 1488.21   1 0.00009-0.02832 0.99834 0.95247-0.05746 0.30329
  -4   0   433519.24 1067.25   1 0.00009-0.27874-0.72385-0.51982-0.68995-0.80751
   4   0   433121.42 1414.15   1 0.00010-0.02841-0.95235-0.99802-0.30499 0.05595
  -4   0  -433913.78 1102.78   1 0.00009 0.02882-0.99831-0.95260 0.05794-0.30285
  -4   0   432959.83 1489.60   1-0.47194-0.75105-0.59593-0.39226 0.64971 0.53107
   4   0  -434810.39 1165.52   1-0.58767-0.30858-0.00841-0.21150 0.80905 0.92738
  -4   0  -430507.71 1331.97   1-0.20818-0.18032 0.93515 0.98079 0.28661-0.07428
   4   0   433550.92 1089.92   1 0.04004 0.01218 0.99767 0.95203-0.05513 0.30576
  -4   0   5 2379.30  167.76   1 0.00003-0.31800 0.03596 0.25886 0.99935 0.91206
   4   0  -5 2576.92  151.57   1 0.00008 0.31803 0.65087 0.42762 0.75918 0.84616
  -4   0  -5 2776.98  171.17   1 0.00010 0.06703 0.96379 0.98994 0.26664-0.12456
  -4   0  -5 2652.19  181.29   1 0.00009 0.06743-0.99066-0.96465 0.13632-0.25474
  -4   0   5 2659.50  212.72   1-0.41105-0.72857-0.71470-0.49136 0.56588 0.47722
   4   0  -5 2813.27  186.69   1-0.58052-0.26294-0.15576-0.37886 0.79920 0.88731
  -4   0  -5 2493.24  164.89   1-0.17181-0.10555 0.95631 0.98230 0.23653-0.15470
   4   0   5 2798.01  180.35   1 0.08822 0.02197 0.98866 0.96267-0.12146 0.26977
   4   0  -617059.70  616.07   1 0.00008 0.35648 0.57918 0.33622 0.81519 0.87170
  -4   0  -618394.48  658.56   1 0.00010 0.10547 0.97104 0.97750 0.23889-0.18266
   4   0  -617821.49  630.32   1-0.00001 0.35544 0.15632-0.08666-0.98770-0.93067
  -4   0  -617471.55  639.56   1 0.00009 0.10588-0.97780-0.97153 0.20951-0.21192
  -4   0   615322.81  583.49   1-0.00001-0.35569-0.15501 0.08771 0.98791 0.93047
  -4   0   616993.67  694.81   1-0.35707-0.71310-0.79425-0.55119 0.49158 0.43320
   4   0  -618941.37  691.70   1-0.56789-0.21186-0.25742-0.50020 0.78181 0.83958
  -4   0  -615788.35  583.29   1-0.14670-0.04205 0.96834 0.97468 0.20196-0.21960
   4   0  -7  978.30   92.48   1 0.00007 0.39511 0.51573 0.25339 0.85674 0.88299
  -4   0  -7 1044.74  117.20   1 0.00010 0.14390 0.97538 0.96215 0.22049-0.23141
   4   0   7 1034.53  118.07   1 0.00008-0.14325 0.96085 0.97414-0.27703 0.17470
   4   0  -7 1026.97  100.81   1 0.00000 0.39383 0.33215 0.06945-0.94322-0.91655
   4   0   7  977.91  109.40   1 0.00010-0.14367-0.97558-0.96189-0.21960 0.23263
  -4   0  -7  993.15  113.56   1 0.00008 0.14433-0.96064-0.97410 0.27779-0.17402
  -4   0   7  871.51  104.47   1 0.00000-0.39415-0.33110-0.06865 0.94359 0.91647
  -4   0   7 1004.87  144.18   1-0.31049-0.70495-0.84903-0.58617 0.42746 0.39929
   4   0  -7 1070.38  114.33   1-0.55560-0.16113-0.32596-0.58843 0.76488 0.79232
  -4   0  -7  918.73  104.85   1-0.12996 0.01307 0.97524 0.96192 0.17892-0.27298
   4   0   7 1036.89  121.54   1-0.14382-0.28709 0.93536 0.94919-0.32313 0.12884
   4   0  -827353.55 1025.28   1 0.00007 0.43359 0.46113 0.17910 0.88732 0.88313
   4   0   827684.15 1268.69   1 0.00008-0.18162 0.94016 0.97315-0.34072 0.14138
   4   0  -828369.51 1280.56   1 0.00001 0.43222 0.48342 0.20100-0.87538-0.87907
  -4   0  -827611.59 1040.07   1 0.00008 0.18278-0.93984-0.97305 0.34160-0.14058
  -4   0   823687.34  900.44   1 0.00001-0.43261-0.48268-0.20053 0.87579 0.87899
   4   0  -829051.35 1350.99   1-0.54560-0.11269-0.37163-0.65379 0.75112 0.74823
   4   0   827305.39 1000.20   1-0.18124-0.36287 0.89517 0.92879-0.40720 0.07520
   4   0  -9 2101.19  131.79   1 0.00007 0.47207 0.41784 0.11610 0.90851 0.87388
   4   0   9 1978.37  169.56   1 0.00007-0.22000 0.91634 0.96903-0.40038 0.11208
  -4   0  -9 2062.65  170.30   1 0.00007 0.22158-0.91596-0.96881 0.40125-0.11092
  -4   0   9 1709.29  140.89   1 0.00003-0.47108-0.60848-0.30662 0.79356 0.82708
   4   0  -9 2008.66  164.08   1-0.53853-0.06702-0.40040-0.70264 0.74138 0.70837
   4   0   9 1964.77  151.53   1-0.21701-0.43700 0.84569 0.89910-0.48755 0.02527
   4   0  10 5884.22  296.19   1 0.00007-0.25844 0.88970 0.96216-0.45653 0.08626
  -4   0 -10 5859.74  286.27   1 0.00007 0.26005-0.88927-0.96183 0.45736-0.08513
  -4   0  10 5096.10  268.91   1 0.00004-0.50954-0.71051-0.38894 0.70368 0.76751
   4   0 -10 6030.64  303.78   1-0.53367-0.02368-0.41879-0.74074 0.73470 0.67136
   4   0  10 5746.96  291.26   1-0.25095-0.50909 0.78685 0.86046-0.56380-0.02077
   4   0  11  635.56  118.22   1 0.00006-0.29682 0.86061 0.95279-0.50925 0.06390
  -4   0 -11  627.72  109.93   1 0.00006 0.29853-0.86008-0.95234 0.51015-0.06265
  -4   0  11  540.35  105.62   1 0.00005-0.54799-0.79199-0.45070 0.61052 0.70467
   4   0 -11  580.13  103.62   1-0.53092 0.01753-0.42879-0.77045 0.73092 0.63725
   4   0  11  590.02   94.80   1-0.28226-0.57873 0.71983 0.81325-0.63416-0.06070
   4   0  1220917.95  895.16   1 0.00006-0.33520 0.82920 0.94109-0.55894 0.04457
  -4   0 -1221520.32 1078.10   1 0.00006 0.33700-0.82854-0.94051 0.55992-0.04320
   4   0 -1221179.94 1044.62   1-0.52991 0.05702-0.43240-0.79377 0.72953 0.60552
   4   0  1221003.24  952.06   1-0.31094-0.64574 0.64442 0.75765-0.69858-0.09470
   4   0  13 1501.74  149.04   1 0.00005-0.37358 0.79557 0.92717-0.60584 0.02803
  -4   0 -13 1538.20  141.55   1 0.00005 0.37547-0.79477-0.92645 0.60690-0.02654
   4   0 -13 1561.17  140.32   1-0.53031 0.09511-0.43098-0.81207 0.73007 0.57574
   4   0  13 1503.69  129.22   1-0.33672-0.70985 0.56061 0.69366-0.75651-0.12220
   4   0  14 2363.65  192.87   1 0.00005-0.41190 0.75977 0.91111-0.65017 0.01414
  -4   0 -14 2523.58  185.66   1 0.00005 0.41394-0.75883-0.91021 0.65128-0.01248
   4   0 -14 2482.12  187.30   1-0.53184 0.13206-0.42550-0.82630 0.73218 0.54751
   4   0  15  185.75  115.26   1 0.00004-0.45028 0.72182 0.89288-0.69207 0.00261
  -4   0 -15   12.46  102.11   1-0.35163 0.10105-0.80125-0.97238 0.48408-0.21036
  -4   2   0 6018.52  260.58   1 0.00008-0.04745 0.53197 0.77618 0.84676 0.62871
   4  -2   0 5317.46  238.23   1 0.00009 0.04734 0.78139 0.53723 0.62403 0.84210
  -4  -2   0 5679.64  243.34   1 0.00010-0.20326 0.97354 0.97859 0.22849-0.03232
   4   2   0 5974.56  249.35   1 0.00009 0.20360 0.98164 0.97656-0.19070 0.06978
  -4   2   0 5850.06  254.40   1 0.00009-0.04660-0.78101-0.53672-0.62450-0.84246
   4   2   0 5589.34  227.40   1 0.00010 0.20369-0.97319-0.97855-0.22999 0.03054
  -4  -2   0 5384.37  248.77   1 0.00009-0.20310-0.98179-0.97660 0.18995-0.07067
  -4   2   0 4936.25  284.94   1-0.55116-0.59885 0.34710 0.59104 0.75877 0.54040
   4  -2   0 5564.45  278.59   1-0.43402-0.38628 0.67424 0.43029 0.59751 0.81586
  -4  -2   0 4953.91  246.36   1-0.37543-0.57907 0.76936 0.77399 0.51684 0.25614
  -4   2  -1 2537.58  162.71   1 0.00008-0.00899 0.61922 0.84372 0.78521 0.53670
   4  -2  -1 2343.90  148.81   1 0.00009 0.08608 0.71183 0.44790 0.70234 0.88992
   4  -2   1 2269.60  147.11   1 0.00010 0.00892 0.84386 0.61941 0.53654 0.78501
  -4  -2   1 2477.41  158.40   1 0.00010-0.24169 0.93894 0.96367 0.34407 0.11361
  -4  -2  -1 2474.62  154.37   1 0.00010-0.16493 0.98979 0.97504 0.14247-0.14861
   4   2  -1 2427.95  153.37   1 0.00009 0.24197 0.99046 0.96585-0.13776 0.09261
   4   2   1 2383.33  153.22   1 0.00008 0.16523 0.97040 0.98501-0.24149 0.04936
  -4   2  -1 2329.89  150.23   1 0.00010-0.00817-0.84372-0.61922-0.53678-0.78516
   4   2  -1 2329.52  142.87   1 0.00010 0.24211-0.93810-0.96325-0.34635-0.11625
   4   2   1 2275.35  139.05   1 0.00010 0.16507-0.98965-0.97518-0.14345 0.14753
  -4  -2   1 2380.67  160.13   1 0.00009-0.24156-0.99071-0.96578 0.13592-0.09433
  -4  -2  -1 2323.83  161.27   1 0.00008-0.16465-0.97053-0.98508 0.24097-0.05003
  -4   2   1 2162.43  201.36   1-0.57942-0.66532 0.16724 0.43091 0.79768 0.60963
  -4   2  -1 2013.76  172.47   1-0.50772-0.51709 0.50362 0.72792 0.69898 0.45027
   4  -2  -1 2448.80  178.33   1-0.49555-0.40944 0.53757 0.27396 0.68222 0.87022
   4  -2   1 2407.68  177.21   1-0.36194-0.35259 0.78785 0.56360 0.49828 0.74701
  -4  -2  -1 2398.54  156.08   1-0.17753-0.34278 0.95328 0.93825 0.24440-0.04664
  -4   2   2 3331.65  223.00   1 0.00006-0.12450 0.31382 0.59732 0.94948 0.79227
   4  -2  -2 3080.73  198.05   1 0.00008 0.12453 0.63882 0.35518 0.76934 0.92646
  -4   2  -2 3652.26  233.38   1 0.00009 0.02947 0.69065 0.89543 0.72318 0.44421
  -4  -2   2 3304.88  223.46   1 0.00010-0.28028 0.86875 0.91334 0.49524 0.29536
   4  -2   2 3044.26  208.77   1 0.00010-0.02950 0.89684 0.69210 0.44233 0.72119
  -4  -2  -2 3126.70  205.36   1 0.00010-0.12652 0.99674 0.96230 0.08067-0.24076
   4   2  -2 3402.69  219.89   1 0.00009 0.28039 0.99673 0.95244-0.08072 0.11931
   4   2   2 3427.58  220.90   1 0.00008 0.12685 0.95710 0.99142-0.28975 0.03147
   4  -2   2 3338.56  215.17   1 0.00009-0.03009-0.69062-0.89532-0.72321-0.44440
   4   2  -2 3386.22  216.81   1 0.00010 0.28051-0.86760-0.91257-0.49724-0.29752
  -4   2  -2 3489.45  228.67   1 0.00010 0.03019-0.89681-0.69208-0.44240-0.72118
   4   2   2 3259.75  203.10   1 0.00010 0.12664-0.99669-0.96244-0.08126 0.24011
  -4  -2   2 3060.72  228.37   1 0.00009-0.28016-0.99698-0.95213 0.07756-0.12223
  -4   2   2 3112.57  267.73   1-0.58757-0.71187-0.02030 0.26303 0.80891 0.65118
   4  -2  -2 3079.51  227.72   1-0.54120-0.41676 0.38983 0.10656 0.74506 0.90274
  -4   2  -2 3017.10  228.33   1-0.45716-0.42815 0.62841 0.83304 0.62936 0.35031
   4  -2   2 3205.10  232.96   1-0.28643-0.31547 0.87318 0.66859 0.39432 0.67339
  -4  -2  -2 2939.66  195.82   1-0.08223-0.20910 0.99016 0.95547 0.11321-0.20816
   4   2   2 3412.68  223.39   1-0.10990 0.01713 0.96278 0.99709-0.24691 0.07418
  -4   2   3 1711.47  150.53   1 0.00005-0.16297 0.18916 0.49230 0.98194 0.85502
   4  -2  -3 2264.72  161.01   1 0.00008 0.16298 0.56606 0.26270 0.82436 0.95100
  -4  -2   3 2418.33  188.01   1 0.00009-0.31905 0.73576 0.80004 0.67723 0.50807
  -4   2  -3 2005.04  163.03   1 0.00009 0.06812 0.74722 0.93225 0.66457 0.35531
   4   2  -3 1783.84  144.28   1 0.00009 0.31881 0.99981 0.93583-0.01942 0.15025
   4   2   3 1753.15  145.23   1 0.00008 0.08847 0.94193 0.99595-0.33580 0.01578
   4   2  -3 1761.72  143.03   1 0.00009 0.31893-0.73461-0.79938-0.67847-0.50917
  -4   2  -3 1706.82  149.42   1 0.00010 0.06861-0.93894-0.75401-0.34406-0.65326
   4   2   3 1709.79  139.54   1 0.00010 0.08821-0.99929-0.94527-0.03765 0.31413
  -4  -2   3 2349.12  180.88   1 0.00009-0.31859-0.99988-0.93526 0.01517-0.15422
  -4   2   3 1592.57  179.44   1-0.57610-0.73872-0.19769 0.10562 0.79311 0.66568
   4  -2  -3 2367.08  193.51   1-0.56972-0.40690 0.24544-0.05747 0.78432 0.91166
   4   2  -3 1810.55  167.55   1-0.55937-0.24056 0.30672 0.24295 0.77007 0.93973
  -4   2  -3 1699.63  161.07   1-0.40681-0.33939 0.72168 0.90663 0.56006 0.25066
   4  -2   3 2376.29  193.77   1-0.21303-0.28046 0.93198 0.74705 0.29328 0.60269
  -4  -2  -3 2133.35  157.35   1-0.03283-0.12131 0.99843 0.94410 0.04520-0.30651
   4   2  -3 1708.49  142.93   1-0.04519 0.27361 0.99703 0.93345 0.06222 0.23193
   4   2   3 1492.97  136.73   1-0.13465-0.04602 0.94357 0.99773-0.30252 0.04895
  -4   2   4 4780.38  249.65   1 0.00003-0.20148 0.05963 0.38247 0.99822 0.90172
   4  -2  -4 4617.03  226.56   1 0.00007 0.20161 0.49752 0.17462 0.86745 0.96377
  -4  -2   4 4940.52  264.47   1 0.00007-0.35753 0.50833 0.59195 0.86115 0.72232
  -4   2  -4 5417.93  266.75   1 0.00009 0.10656 0.79101 0.95633 0.61180 0.27215
   4   2  -4 5247.34  255.00   1 0.00010 0.35723 0.99889 0.91522 0.04705 0.18638
  -4  -2  -4 4621.51  231.45   1 0.00009-0.04968 0.99996 0.92615 0.00829-0.37384
   4   2   4 5025.08  254.32   1 0.00007 0.05010 0.92501 0.99874-0.37992 0.00203
  -4   2  -4 4958.58  257.39   1 0.00010 0.10704-0.96961-0.80447-0.24463-0.58426
  -4  -2   4 4765.15  249.97   1 0.00010-0.35701-0.99861-0.91421-0.05270-0.19170
   4   2   4 4911.34  232.83   1 0.00009 0.04977-0.99996-0.92617-0.00838 0.37379
  -4  -2  -4 4751.49  248.92   1 0.00007-0.04888-0.92501-0.99880 0.37991-0.00212
  -4  -2  -4 4617.70  275.47   1-0.29458-0.34346-0.86530-0.93888 0.40555 0.02284
  -4   2   4 4865.11  312.30   1-0.54978-0.75084-0.35338-0.03039 0.75687 0.65978
   4   2  -4 5375.97  264.32   1-0.57461-0.21739-0.20981-0.29365 0.79106 0.93086
   4  -2  -4 4886.72  268.55   1-0.58369-0.38259 0.11658-0.20606 0.80356 0.90064
  -4   2  -4 4087.79  232.63   1-0.36146-0.25564 0.78849 0.95379 0.49761 0.15787
   4  -2   4 4878.08  262.22   1-0.14504-0.25087 0.96906 0.80378 0.19968 0.53943
  -4  -2  -4 4281.79  217.56   1-0.00628-0.05637 0.99994 0.92595 0.00865-0.37339
   4   2  -4 4812.43  231.72   1 0.03687 0.39407 0.99802 0.91479-0.05076 0.08860
  -4   2   5 1393.49  125.02   1 0.00002-0.23997-0.06916 0.27338 0.99760 0.93149
  -4  -2   5 1491.60  136.07   1 0.00004-0.39602 0.16792 0.27117 0.98580 0.87728
   4  -2  -5 1559.71  120.12   1 0.00007 0.24009 0.43491 0.09232 0.90047 0.96634
  -4   2  -5 1629.47  133.60   1 0.00010 0.14498 0.82414 0.96975 0.56638 0.19633
   4  -2   5 1564.65  136.53   1 0.00010-0.14495 0.98904 0.84332 0.14762 0.51747
   4   2  -5 1648.78  128.56   1 0.00010 0.39565 0.99280 0.88945 0.11977 0.22875
  -4  -2  -5 1684.23  130.99   1 0.00009-0.01126 0.99995 0.90646-0.00964-0.42213
   4   2   5 1505.11  133.52   1 0.00007 0.01168 0.90644 0.99988-0.42232-0.01000
   4  -2   5 1742.73  135.14   1 0.00010-0.14532-0.82454-0.96983-0.56579-0.19570
  -4   2  -5 1566.61  137.42   1 0.00010 0.14567-0.98915-0.84370-0.14685-0.51666
   4   2   5 1501.72  121.56   1 0.00009 0.01134-0.99995-0.90638 0.00971 0.42229
  -4  -2  -5 1641.43  138.71   1 0.00007-0.01041-0.90640-0.99989 0.42240 0.01005
  -4  -2  -5 1652.95  161.36   1-0.30377-0.31414-0.85604-0.94936 0.41821 0.00521
  -4   2   5 1530.95  170.26   1-0.51467-0.75413-0.48276-0.13982 0.70854 0.64166
   4   2  -5 1668.63  136.90   1-0.53780-0.14207-0.40324-0.50707 0.74038 0.85011
   4  -2  -5 1659.79  144.71   1-0.58768-0.34818 0.00806-0.33424 0.80905 0.87581
   4  -2   5 1708.85  152.35   1-0.08361-0.22783 0.98982 0.84420 0.11511 0.48519
  -4  -2  -5 1490.51  122.62   1 0.00746-0.00423 0.99991 0.90628-0.01027-0.42265
   4   2  -5 1448.22  117.83   1 0.05289 0.44848 0.99594 0.89305-0.07282 0.03621
   4   2   5 1537.14  133.07   1-0.18439-0.17248 0.89127 0.98501-0.41428-0.00194
   4  -2  -6 2475.17  153.58   1 0.00006 0.27857 0.38043 0.01814 0.92480 0.96024
  -4   2  -6 2970.51  186.07   1 0.00010 0.18341 0.84870 0.97460 0.52886 0.12842
   4   2  -6 2906.71  176.78   1 0.00010 0.43408 0.97966 0.85646 0.20062 0.27933
   4  -2   6 2517.45  179.86   1 0.00010-0.18336 0.99859 0.87241 0.05299 0.45307
  -4  -2  -6 2633.92  167.73   1 0.00009 0.02715 0.99982 0.88664-0.01880-0.46164
   4   2   6 2791.44  180.17   1 0.00007-0.02669 0.88628 0.99943-0.46313-0.02045
   4   2  -6 2808.90  174.78   1-0.00000 0.43371 0.23092 0.10742-0.97297-0.89462
   4  -2  -6 2615.86  165.84   1-0.00001 0.27719 0.19226-0.17020-0.98134-0.94561
   4  -2   6 2669.20  170.56   1 0.00010-0.18375-0.84916-0.97465-0.52812-0.12761
  -4   2  -6 2814.26  184.09   1 0.00010 0.18409-0.99867-0.87299-0.05144-0.45164
   4   2   6 2765.17  170.47   1 0.00009-0.02708-0.99981-0.88648 0.01899 0.46197
  -4  -2  -6 2600.08  178.09   1 0.00007 0.02806-0.88619-0.99939 0.46330 0.02063
  -4  -2   6 2247.87  163.78   1-0.00000-0.43376-0.22689-0.10363 0.97391 0.89504
  -4   2   6 2439.45  170.89   1-0.00001-0.27761-0.19174 0.17047 0.98144 0.94544
  -4  -2  -6 2592.07  204.14   1-0.31416-0.28601-0.84512-0.95816 0.43250-0.01076
  -4   2   6 2773.10  231.27   1-0.47536-0.75329-0.58801-0.22536 0.65442 0.61786
   4   2  -6 2901.47  184.94   1-0.51107-0.07686-0.49372-0.61726 0.70358 0.78299
   4  -2  -6 2647.51  192.41   1-0.58586-0.30796-0.07909-0.44106 0.80654 0.84298
   4  -2   6 2638.70  188.07   1-0.02868-0.21128 0.99880 0.87283 0.03948 0.43990
  -4  -2  -6 2251.98  156.68   1 0.01334 0.04003 0.99974 0.88645-0.01836-0.46108
   4   2  -6 2572.09  163.64   1 0.05302 0.48699 0.99592 0.87338-0.07299 0.00571
   4   2   6 2815.39  182.80   1-0.20884-0.23528 0.85803 0.97156-0.46920-0.02643
   4  -2  -7 2400.01  143.97   1 0.00006 0.31705 0.33491-0.04706 0.94224 0.94723
  -4   2  -7 2787.64  176.68   1 0.00010 0.22184 0.86648 0.97268 0.49919 0.06836
   4   2  -7 2796.36  167.82   1 0.00010 0.47252 0.95798 0.81509 0.28680 0.33517
   4  -2   7 2486.42  184.13   1 0.00009-0.22179 0.99926 0.89276-0.03828 0.39214
   4   2  -7 2556.43  164.69   1 0.00003 0.47212 0.58646 0.44324-0.80997-0.76199
   4  -2  -7 2539.69  157.39   1-0.00000 0.31557 0.30807-0.07411-0.95136-0.94600
   4  -2   7 2653.11  171.69   1 0.00010-0.22217-0.86698-0.97267-0.49833-0.06739
  -4   2  -7 2625.91  183.86   1 0.00009 0.22252-0.99919-0.89328 0.04007-0.39053
  -4  -2  -7 2523.63  171.22   1 0.00006 0.06653-0.86443-0.99734 0.50274 0.02975
  -4  -2   7 2237.60  162.51   1 0.00003-0.47220-0.58379-0.44082 0.81190 0.76334
  -4   2   7 2409.60  165.32   1-0.00000-0.31608-0.30764 0.07427 0.95150 0.94581
  -4  -2  -7 2367.80  186.99   1-0.32526-0.25860-0.83287-0.96564 0.44779-0.02575
  -4   2   7 2555.22  223.81   1-0.43520-0.75166-0.67203-0.28972 0.59913 0.59249
   4   2  -7 2811.81  180.36   1-0.49482-0.02213-0.53952-0.68277 0.68122 0.73029
   4  -2  -7 2475.25  174.41   1-0.58135-0.26496-0.14660-0.52865 0.80033 0.80642
   4  -2   7 2602.52  181.74   1 0.02037-0.20061 0.99939 0.89307-0.02805 0.40269
  -4  -2  -7 2167.89  151.07   1 0.01404 0.07912 0.99971 0.86677-0.01933-0.49239
   4   2  -7 2364.33  155.88   1 0.04657 0.51894 0.99685 0.85466-0.06411-0.01574
   4   2   7 2562.41  173.13   1-0.23267-0.29747 0.82012 0.95344-0.52274-0.04954
   4  -2  -8 2646.75  176.34   1 0.00006 0.35553 0.29851-0.10315 0.95440 0.92895
  -4   2  -8 3288.73  219.23   1 0.00010 0.26027 0.87892 0.96540 0.47696 0.01573
   4  -2   8 2740.48  205.79   1 0.00009-0.26021 0.99214 0.90532-0.12511 0.33567
   4  -2  -8 2712.49  183.01   1 0.00001 0.35395 0.41422 0.01231-0.91017-0.93518
   4  -2   8 2911.37  202.23   1 0.00010-0.26051-0.87937-0.96535-0.47613-0.01477
  -4  -2   8 2731.60  192.46   1 0.00010-0.51086-0.92066-0.75697-0.39035-0.40744
  -4   2  -8 3080.53  220.46   1 0.00009 0.26107-0.99195-0.90564 0.12661-0.33414
  -4  -2  -8 2824.15  207.90   1 0.00006 0.10501-0.84115-0.99376 0.54079 0.03748
  -4  -2   8 2715.10  202.05   1 0.00006-0.51064-0.81944-0.65673 0.57316 0.55492
  -4   2   8 2739.07  197.68   1 0.00001-0.35454-0.41389-0.01227 0.91032 0.93495
  -4  -2  -8 2670.50  218.17   1-0.33693-0.23190-0.81933-0.97191 0.46385-0.04001
  -4   2   8 3222.63  267.49   1-0.39550-0.75048-0.73966-0.33763 0.54448 0.56813
   4   2  -8 3290.20  222.92   1-0.48582 0.02534-0.56270-0.72567 0.66882 0.68757
   4  -2  -8 2776.25  204.54   1-0.57602-0.22119-0.19833-0.60006 0.79300 0.76875
   4   2  -8 2850.62  192.14   1 0.03669 0.54745 0.99804 0.83620-0.05052-0.03248
   4  -2   8 2864.64  216.35   1 0.06436-0.19501 0.99398 0.90731-0.08860 0.37248
   4   2   8 2975.79  209.05   1-0.25583-0.35880 0.77729 0.93067-0.57476-0.07146
   4  -2  -9  833.77   89.08   1 0.00005 0.39402 0.27092-0.15044 0.96260 0.90670
   4  -2   9  823.72  120.05   1 0.00009-0.29823 0.97823 0.91137-0.20752 0.28363
   4   2   9  557.53  113.62   1 0.00006-0.14182 0.81666 0.98894-0.57711-0.04335
   4  -2  -9  831.85   96.67   1 0.00002 0.39233 0.50995 0.08833-0.86019-0.91556
  -4  -2   9  886.77  102.37   1 0.00010-0.54930-0.87977-0.69620-0.47538-0.46212
  -4   2  -9  639.44  110.01   1 0.00009 0.29951-0.97794-0.91137 0.20885-0.28227
  -4  -2   9  858.91  114.10   1 0.00008-0.54921-0.94038-0.75754 0.34010 0.35283
  -4  -2  -9  865.90  120.97   1 0.00006 0.14348-0.81636-0.98867 0.57754 0.04392
  -4   2   9  472.66   91.95   1 0.00002-0.39301-0.50975-0.08842 0.86031 0.91526
  -4  -2  -9  815.49  136.82   1-0.34872-0.20518-0.80492-0.97722 0.48008-0.05407
   4   2  -9  579.93   89.54   1-0.48171 0.06793-0.57285-0.75553 0.66316 0.65157
   4  -2  -9  842.22  123.52   1-0.57097-0.17769-0.23689-0.65831 0.78604 0.73146
   4  -2   9  924.08  124.15   1 0.10404-0.19372 0.98420 0.91718-0.14323 0.34818
   4  -2   9  824.77  109.74   1-0.12987-0.42833 0.94762 0.88124-0.29178 0.19985
   4   2   9  565.52  100.23   1-0.27782-0.41912 0.73022 0.90341-0.62417-0.09043
   4  -2 -10 1439.05  106.38   1 0.00005 0.43250 0.25157-0.18948 0.96783 0.88149
   4  -2  10 1498.03  145.95   1 0.00008-0.33660 0.95857 0.91141-0.28485 0.23666
   4   2  10 1553.75  145.29   1 0.00005-0.18020 0.79044 0.98243-0.61252-0.04841
  -4  -2  10 1492.55  119.22   1 0.00010-0.58773-0.83864-0.63526-0.54467-0.50099
  -4  -2  10 1466.90  136.17   1 0.00009-0.58766-0.98928-0.78670 0.14597 0.18907
  -4   2 -10 1561.53  140.48   1 0.00008 0.33796-0.95813-0.91130 0.28633-0.23518
  -4  -2 -10 1495.12  137.42   1 0.00005 0.18196-0.79005-0.98207 0.61303 0.04909
  -4   2  10 1342.18  127.82   1 0.00003-0.43148-0.59519-0.15415 0.80358 0.88885
  -4  -2 -10 1382.14  151.86   1-0.36066-0.17861-0.78954-0.98157 0.49652-0.06792
   4   2 -10 1634.57  129.57   1-0.48095 0.10717-0.57469-0.77708 0.66212 0.62020
   4  -2 -10 1452.22  137.29   1-0.56671-0.13499-0.26485-0.70595 0.78018 0.69526
   4  -2  10 1358.71  121.49   1-0.18266-0.51947 0.89343 0.84715-0.41038 0.11166
   4   2  10 1594.31  141.63   1-0.29865-0.47828 0.67868 0.87168-0.67096-0.10680
   4  -2 -11 3196.57  176.55   1 0.00005 0.47102 0.24046-0.22032 0.97065 0.85416
   4  -2  11 3144.93  211.33   1 0.00008-0.37498 0.93388 0.90643-0.35757 0.19431
   4   2  11 3128.04  202.59   1 0.00005-0.21858 0.76271 0.97441-0.64673-0.05225
  -4   2 -11 3344.98  211.14   1 0.00008 0.37662-0.93336-0.90615 0.35892-0.19244
  -4  -2 -11 3175.29  198.39   1 0.00005 0.22043-0.76222-0.97395 0.64731 0.05306
  -4  -2 -11 2990.58  221.58   1-0.37267-0.15211-0.77323-0.98498 0.51305-0.08168
   4   2 -11 3466.52  216.23   1-0.48255 0.14405-0.57079-0.79290 0.66432 0.59207
   4  -2 -11 3105.97  203.77   1-0.56345-0.09329-0.28426-0.74505 0.77570 0.66044
   4  -2  11 2995.79  185.29   1-0.23281-0.60798 0.81988 0.79339-0.52305 0.02942
   4   2  11 3119.36  198.97   1-0.31818-0.53614 0.62269 0.83551-0.71484-0.12025
   4  -2  12 1678.62  172.92   1 0.00007-0.41344 0.90468 0.89704-0.42608 0.15612
   4   2  12 1556.58  155.81   1 0.00005-0.25691 0.73349 0.96488-0.67969-0.05479
  -4   2 -12 1661.58  168.21   1 0.00007 0.41510-0.90408-0.89658 0.42734-0.15434
  -4  -2 -12 1680.73  158.10   1 0.00005 0.25891-0.73284-0.96428 0.68039 0.05582
  -4  -2 -12 1538.84  174.78   1-0.38468-0.12561-0.75600-0.98747 0.52959-0.09543
   4   2 -12 1721.40  158.52   1-0.48583 0.17924-0.56267-0.80449 0.66884 0.56626
   4  -2 -12 1619.56  157.99   1-0.56123-0.05263-0.29672-0.77719 0.77263 0.62705
   4   2  12 1604.99  153.46   1-0.33628-0.59257 0.56224 0.79487-0.75551-0.13049
   4  -2  13  296.70  102.60   1 0.00007-0.45182 0.87160 0.88367-0.49020 0.12236
   4   2  13  168.68  103.56   1 0.00004-0.29528 0.70264 0.95375-0.71153-0.05626
  -4   2 -13  194.21   96.81   1 0.00007 0.45357-0.87084-0.88304 0.49156-0.12043
  -4  -2 -13  293.28  109.93   1 0.00004 0.29738-0.70188-0.95303 0.71229 0.05740
  -4  -2 -13  225.42  130.97   1-0.39666-0.09908-0.73786-0.98906 0.54608-0.10923
   4  -2 -13  318.04  104.03   1-0.55998-0.01294-0.30346-0.80361 0.77092 0.59500
   4   2  13  184.42   92.91   1-0.35281-0.64742 0.49722 0.74967-0.79264-0.13720
   4  -2  14 1300.88  157.08   1 0.00006-0.49020 0.83490 0.86668-0.55039 0.09253
   4   2  14 1097.01  144.91   1 0.00004-0.33366 0.67017 0.94099-0.74220-0.05657
  -4  -2 -14 1287.79  156.96   1 0.00004 0.33585-0.66928-0.94013 0.74300 0.05780
  -4  -2 -14 1158.60  170.46   1-0.40856-0.07247-0.71881-0.98974 0.56246-0.12313
   4  -2 -14 1286.43  163.53   1-0.55961 0.02586-0.30541-0.82525 0.77042 0.56416
   4   2  14  789.20  165.56   1-0.36762-0.70056 0.42744 0.69970-0.82592-0.14004
  -4   4   0 5237.94  256.85   1 0.00005 0.03050 0.28265 0.64640 0.95922 0.76238
   4  -4   0 4971.15  246.99   1 0.00008-0.03049 0.64829 0.28453 0.76139 0.95818
  -4  -4   0 5205.61  243.27   1 0.00009-0.28157 0.99500 0.88025-0.09981-0.38192
   4   4   0 5321.64  252.84   1 0.00005 0.28178 0.78249 0.89690-0.62266-0.34082
  -4   4   0 4963.32  249.51   1 0.00008 0.03186-0.64811-0.28434-0.76154-0.95819
   4   4   0 5290.65  242.79   1 0.00009 0.28156-0.99512-0.88080 0.09860 0.38066
  -4  -4   0 5350.90  270.01   1 0.00005-0.28090-0.78322-0.89767 0.62173 0.33952
   4  -4   0 5511.09  322.34   1-0.46136-0.49162 0.61944 0.25590 0.63516 0.83235
   4   4   0 5178.51  254.72   1-0.20237 0.07980 0.86736 0.98163-0.45466-0.17325
  -4   4   118626.20  656.06   1 0.00005-0.00795 0.19787 0.58125 0.98022 0.81368
  -4   4  -118790.66  666.08   1 0.00006 0.06899 0.36181 0.70587 0.93224 0.70496
   4  -4  -117788.75  631.30   1 0.00008 0.00795 0.58092 0.19745 0.81395 0.98027
  -4  -4   118906.70  658.84   1 0.00009-0.31999 0.99954 0.90447-0.03025-0.28201
  -4  -4  -118110.14  612.48   1 0.00009-0.24328 0.98936 0.85520-0.14548-0.45765
   4   4   119254.26  676.37   1 0.00005 0.24341 0.78644 0.92056-0.61766-0.30546
   4   4  -119072.52  679.21   1 0.00005 0.32016 0.77044 0.86514-0.63750-0.38603
  -4   4  -118181.15  626.41   1 0.00009 0.07025-0.71539-0.37144-0.69871-0.92579
   4   4  -119154.22  660.59   1 0.00009 0.32033-0.99961-0.90517 0.02776 0.27934
   4   4   119197.92  653.33   1 0.00009 0.24311-0.98943-0.85536 0.14499 0.45742
  -4  -4  -118403.83  667.12   1 0.00005-0.24242-0.78706-0.92120 0.61686 0.30432
  -4  -4   118328.99  650.90   1 0.00005-0.31937-0.77138-0.86612 0.63636 0.38447
  -4  -4  -116790.41  675.06   1-0.58021-0.82331-0.15911-0.29328 0.79877 0.48594
   4  -4  -118983.49  729.36   1-0.50250-0.49438 0.51856 0.13537 0.69179 0.85863
   4  -4   119116.18  750.70   1-0.41253-0.48113 0.71222 0.36834 0.56793 0.79550
  -4  -4   116517.06  634.24   1-0.33239-0.65238 0.82468 0.72933 0.45760 0.20607
   4   4  -118746.36  674.18   1-0.19280 0.12773 0.88044 0.97493-0.43317-0.18218
   4   4   117856.95  640.94   1-0.21332 0.03050 0.85135 0.98541-0.47926-0.16742
  -4   4   211727.22  477.28   1 0.00004-0.04646 0.10849 0.51157 0.99409 0.85797
  -4   4  -212126.08  470.87   1 0.00007 0.10748 0.43360 0.75796 0.90110 0.64338
   4  -4  -211665.49  453.13   1 0.00007 0.04640 0.51582 0.11264 0.85669 0.99255
  -4  -4   212519.59  475.90   1 0.00010-0.35840 0.99725 0.92186 0.07408-0.14733
  -4  -4  -211707.70  444.66   1 0.00009-0.20491 0.98454 0.83068-0.17513-0.51766
   4   4   212566.78  503.83   1 0.00005 0.20504 0.78487 0.93870-0.61964-0.27709
   4   4  -212090.00  462.89   1 0.00005 0.35854 0.74566 0.82051-0.66631-0.44520
  -4   4  -211455.01  453.27   1 0.00009 0.10868-0.77984-0.45568-0.62597-0.88348
   4   4  -212455.36  474.58   1 0.00010 0.35877-0.99698-0.92232-0.07763 0.14354
   4   4   212430.59  462.47   1 0.00009 0.20465-0.98461-0.83080 0.17475 0.51756
  -4  -4  -212199.03  492.10   1 0.00005-0.20394-0.78535-0.93921 0.61904 0.27620
  -4  -4   211937.47  479.39   1 0.00005-0.35786-0.74657-0.82160 0.66530 0.44372
  -4  -4  -211532.68  526.05   1-0.54853-0.75319-0.35893-0.51279 0.75516 0.41200
  -4   4   210591.66  531.91   1-0.58757-0.63387-0.02075 0.38214 0.80890 0.67243
   4  -4  -211780.74  504.41   1-0.53469-0.48824 0.41503 0.01218 0.73610 0.87262
   4  -4   211731.26  513.81   1-0.35819-0.46518 0.79279 0.46856 0.49312 0.75103
   4   4  -212136.00  470.66   1-0.18496 0.17393 0.89056 0.96525-0.41555-0.19499
   4   4   211692.09  455.55   1-0.22534-0.01988 0.83240 0.98625-0.50628-0.16401
   4  -4  -318207.33  678.74   1 0.00007 0.08508 0.45530 0.03246 0.89033 0.99584
  -4   4  -319780.39  712.38   1 0.00007 0.14597 0.49711 0.80177 0.86768 0.57951
   4  -4   317421.15  643.32   1 0.00010-0.14607 0.83857 0.53404 0.54479 0.83274
  -4  -4   320503.30  743.59   1 0.00010-0.39669 0.97243 0.91698 0.23319 0.04206
  -4  -4  -318768.44  652.05   1 0.00009-0.16653 0.98125 0.80769-0.19269-0.56559
   4   4   320384.49  748.33   1 0.00005 0.16666 0.77924 0.95278-0.62671-0.25380
   4   4  -319547.31  694.51   1 0.00004 0.39691 0.69648 0.75161-0.71757-0.52682
  -4   4  -318863.83  679.68   1 0.00010 0.14711-0.83887-0.53451-0.54432-0.83225
   4   4  -319184.64  694.95   1 0.00010 0.39737-0.97113-0.91640-0.23853-0.04797
   4   4   320231.17  698.97   1 0.00009 0.16620-0.98131-0.80777 0.19239 0.56557
  -4  -4  -319745.36  716.53   1 0.00005-0.16546-0.77962-0.95318 0.62624 0.25308
  -4  -4   318887.34  716.49   1 0.00004-0.39634-0.69789-0.75322 0.71620 0.52494
  -4  -4  -318774.01  743.64   1-0.51805-0.68409-0.47218-0.64561 0.71320 0.33940
  -4   4   318109.24  775.91   1-0.58116-0.66570-0.14868 0.27420 0.80008 0.69400
   4  -4  -318696.10  730.76   1-0.55795-0.47312 0.31411-0.10839 0.76812 0.87430
   4  -4   319177.94  750.73   1-0.30088-0.44626 0.85900 0.55442 0.41422 0.70247
   4   4  -319419.07  711.10   1-0.17924 0.21801 0.89760 0.95251-0.40270-0.21257
   4   4   319556.96  749.67   1-0.23817-0.07106 0.81051 0.98416-0.53509-0.16239
  -4   4   4 4484.14  236.45   1 0.00002-0.12345-0.07513 0.36735 0.99717 0.92185
   4  -4  -4 4611.56  231.29   1 0.00006 0.12356 0.40032-0.04220 0.91637 0.99143
  -4   4  -4 4846.82  252.77   1 0.00008 0.18449 0.55214 0.83703 0.83375 0.51510
   4  -4   4 4458.46  250.34   1 0.00010-0.18449 0.88990 0.60508 0.45614 0.77448
  -4  -4   4 5042.09  272.19   1 0.00010-0.43528 0.87684 0.84135 0.48078 0.32038
  -4  -4  -4 4609.15  225.69   1 0.00009-0.12816 0.97956 0.78629-0.20114-0.60441
   4   4   4 4761.84  253.73   1 0.00005 0.12829 0.77041 0.96367-0.63753-0.23426
   4   4  -4 4605.66  237.16   1 0.00003 0.43526 0.59251 0.62792-0.80555-0.64517
   4   4  -4 4454.76  231.54   1 0.00010 0.43580-0.87375-0.83885-0.48636-0.32617
  -4   4  -4 4683.13  253.66   1 0.00010 0.18545-0.89021-0.60560-0.45553-0.77385
   4   4   4 4942.27  239.59   1 0.00009 0.12774-0.97961-0.78633 0.20089 0.60445
  -4  -4  -4 4274.09  242.94   1 0.00005-0.12698-0.77070-0.96397 0.63718 0.23371
   4   4  -4 5218.40  256.06   1-0.38435 0.05082-0.75650-0.72109 0.52912 0.69097
  -4  -4  -4 4833.42  296.12   1-0.49532-0.62288-0.53818-0.73133 0.68191 0.27778
  -4   4   4 4521.16  313.36   1-0.56607-0.68905-0.26878 0.17379 0.77930 0.70355
   4  -4  -4 5013.87  298.54   1-0.57325-0.45005 0.22035-0.22180 0.78919 0.86501
   4   4  -4 5058.27  262.64   1-0.55801-0.12283 0.31377 0.34992 0.76821 0.92869
  -4   4  -4 4294.28  251.02   1-0.45939-0.27564 0.62367 0.90858 0.63244 0.31383
   4  -4   4 4850.27  287.30   1-0.24293-0.42671 0.91056 0.62565 0.33444 0.65304
   4   4  -4 4697.23  241.59   1-0.17610 0.25951 0.90135 0.93647-0.39565-0.23595
   4   4   4 4605.19  247.41   1-0.25166-0.12281 0.78548 0.97900-0.56540-0.16266
   4  -4  -516172.64  579.36   1 0.00006 0.16204 0.35202-0.11019 0.93598 0.98061
  -4  -4   517919.09  716.45   1 0.00007-0.47407 0.49185 0.47553 0.87067 0.74102
  -4   4  -518555.15  681.96   1 0.00008 0.22295 0.59853 0.86371 0.80109 0.45198
   4  -4   515898.87  609.13   1 0.00010-0.22307 0.93188 0.66660 0.36275 0.71124
   4   4   518087.03  666.05   1 0.00005 0.08994 0.75909 0.97194-0.65098-0.21732
   4   4  -516819.18  691.80   1-0.00000 0.47361 0.27431 0.29000-0.96164-0.83161
   4  -4  -517391.76  624.15   1-0.00001 0.16055 0.16564-0.29659-0.98618-0.94140
  -4   4  -517271.05  651.80   1 0.00010 0.22388-0.93245-0.66763-0.36127-0.71003
   4   4   517953.28  629.58   1 0.00009 0.08929-0.97931-0.76630 0.20232 0.63624
  -4  -4   515541.39  611.72   1-0.00000-0.47336-0.28461-0.30052 0.95864 0.82801
  -4   4   516870.25  647.87   1-0.00001-0.16106-0.16543 0.29653 0.98622 0.94134
   4   4  -518902.75  696.29   1-0.37193 0.10175-0.77427-0.75858 0.51203 0.64358
  -4  -4  -517484.50  723.07   1-0.47949-0.56857-0.57821-0.79108 0.66011 0.22565
  -4   4   516901.40  733.75   1-0.54410-0.70552-0.37797 0.08429 0.74905 0.70365
   4  -4  -517994.65  705.78   1-0.58217-0.42067 0.13682-0.32505 0.80146 0.84697
   4   4  -519385.72  704.74   1-0.44638 0.02719 0.65044 0.66696 0.61453 0.74458
   4  -4   517618.43  714.97   1-0.18624-0.40841 0.94845 0.68319 0.25640 0.60533
   4   4  -517530.86  646.61   1-0.17610 0.29787 0.90135 0.91668-0.39564-0.26637
   4  -4  -6 6675.65  301.17   1 0.00006 0.20052 0.31084-0.17107 0.95045 0.96463
  -4   4  -6 7183.94  334.74   1 0.00008 0.26141 0.63683 0.88229 0.77100 0.39142
   4  -4   6 6474.27  331.92   1 0.00010-0.26151 0.96406 0.71847 0.26567 0.64451
   4   4   6 7200.71  336.31   1 0.00005 0.05157 0.74531 0.97788-0.66671-0.20268
  -4   4  -6 6712.23  327.50   1 0.00010 0.26230-0.96456-0.71953-0.26383-0.64301
  -4  -4  -6 7357.97  346.03   1 0.00005-0.05003-0.74529-0.97797 0.66673 0.20262
  -4   4   6 6035.94  305.68   1-0.00000-0.19953-0.25314 0.22854 0.96742 0.95286
   4   4  -6 7451.95  344.74   1-0.37399 0.13819-0.77138-0.77541 0.51487 0.61613
  -4  -4  -6 6937.30  370.91   1-0.46911-0.51971-0.60236-0.83494 0.64582 0.18103
   4  -4  -6 6994.57  352.05   1-0.58647-0.38657 0.06450-0.41703 0.80739 0.82258
   4   4  -6 7297.91  341.33   1-0.35711 0.15481 0.79420 0.79131 0.49163 0.59148
   4  -4   6 7283.35  376.36   1-0.13198-0.39254 0.97445 0.72885 0.18170 0.56096
   4   4  -6 6931.67  324.74   1-0.17992 0.33241 0.89678 0.89232-0.40423-0.30538
   4   4   6 6667.59  323.49   1-0.27928-0.22709 0.72683 0.95998-0.62746-0.16387
   4  -4  -710297.82  505.19   1 0.00005 0.23901 0.27685-0.22476 0.96091 0.94464
  -4   4  -711163.19  554.68   1 0.00009 0.29987 0.66770 0.89345 0.74442 0.33438
   4  -4   7 9979.21  525.29   1 0.00010-0.29995 0.98589 0.75999 0.16737 0.57656
   4   4   710904.05  550.94   1 0.00005 0.01320 0.72948 0.98177-0.68400-0.18960
   4  -4   711542.48  572.95   1 0.00009-0.30066-0.66799-0.89313-0.74416-0.33453
  -4   4  -710369.72  529.14   1 0.00010 0.30094-0.98614-0.76073-0.16586-0.57508
  -4  -4  -711234.18  560.14   1 0.00005-0.01155-0.72939-0.98177 0.68409 0.18967
   4   4  -711333.12  571.07   1-0.38087 0.16982-0.76157-0.78533 0.52434 0.59531
  -4  -4  -710849.45  583.81   1-0.46289-0.47501-0.61613-0.86842 0.63726 0.14214
   4  -4  -710891.57  563.11   1-0.58769-0.34939 0.00362-0.49757 0.80907 0.79394
   4  -4   711388.38  596.56   1-0.08078-0.37973 0.99050 0.76455 0.11122 0.52082
   4   4  -710876.91  546.25   1-0.18849 0.36219 0.88607 0.86181-0.42349-0.35508
   4   4   710285.95  538.08   1-0.29315-0.27928 0.69302 0.94599-0.65861-0.16459
   4  -4  -8 3554.90  188.43   1 0.00005 0.27749 0.24984-0.27146 0.96828 0.92157
   4  -4   8 3530.83  222.91   1 0.00010-0.33841 0.99752 0.79103 0.07024 0.50964
   4   4   8 3459.22  209.64   1 0.00004-0.02517 0.71176 0.98377-0.70241-0.17766
  -4   4  -8 3339.09  206.98   1 0.00010 0.33936-0.99769-0.79205-0.06780-0.50742
  -4  -4  -8 3782.24  218.39   1 0.00004 0.02691-0.71159-0.98369 0.70258 0.17784
   4   4  -8 3599.51  202.59   1-0.38989 0.19931-0.74823-0.79171 0.53676 0.57745
  -4  -4  -8 3683.21  249.79   1-0.45984-0.43348-0.62271-0.89471 0.63306 0.10761
   4  -4  -8 3710.04  232.28   1-0.58706-0.31036-0.04649-0.56734 0.80820 0.76275
   4  -4   8 3873.09  242.59   1-0.03290-0.37023 0.99843 0.79213 0.04529 0.48523
   4   4   8 3304.69  212.36   1-0.30684-0.33130 0.65621 0.92899-0.68936-0.16492
   4  -4  -912543.95  364.17   1 0.00005 0.31600 0.22999-0.31103 0.97319 0.89632
   4  -4   912684.78  430.06   1 0.00009-0.37683 0.99967 0.81285-0.02562 0.44413
  -4   4  -913901.28  429.91   1 0.00009 0.37779-0.99959-0.81373 0.02829-0.44171
  -4  -4  -913235.95  396.48   1 0.00004 0.06539-0.69201-0.98381 0.72188 0.16682
  -4  -4  -913084.73  477.11   1-0.45921-0.39437-0.62405-0.91576 0.63220 0.07641
   4  -4  -912851.19  432.04   1-0.58547-0.27037-0.08688-0.62740 0.80601 0.73024
   4  -4   913933.06  449.39   1 0.01169-0.36402 0.99980 0.81315-0.01610 0.45416
   4   4   913781.84  417.59   1-0.32020-0.38300 0.61638 0.90897-0.71940-0.16452
   4  -4 -10 4721.08  244.23   1 0.00005 0.35449 0.21585-0.34487 0.97642 0.86913
   4  -4  10 4842.54  288.71   1 0.00009-0.41525 0.99294 0.82581-0.11855 0.38155
  -4   4 -10 5137.64  289.23   1 0.00009 0.41625-0.99268-0.82633 0.12074-0.37934
  -4  -4 -10 4932.38  271.15   1 0.00004 0.10386-0.67072-0.98222 0.74170 0.15633
  -4  -4 -10 4885.30  311.61   1-0.46045-0.35713-0.62140-0.93282 0.63390 0.04779
   4  -4 -10 4619.55  270.95   1-0.58356-0.22993-0.11840-0.67908 0.80338 0.69712
   4  -4  10 5430.71  311.21   1 0.05318-0.36092 0.99589 0.82890-0.07322 0.42738
   4   4  10 4853.74  278.84   1-0.33312-0.43424 0.57349 0.88590-0.74842-0.16312
   4  -4 -11 8086.27  430.23   1 0.00005 0.39298 0.20748-0.37294 0.97823 0.84051
   4  -4  11 8351.90  471.41   1 0.00009-0.45321 0.97807 0.83108-0.20825 0.32233
   4   4  11 7112.83  410.54   1 0.00003-0.14029 0.64818 0.97934-0.76148-0.14563
  -4   4 -11 7439.55  420.23   1 0.00009 0.45470-0.97766-0.83105 0.21016-0.32029
  -4  -4 -11 8279.54  450.44   1 0.00003 0.14234-0.64775-0.97896 0.76184 0.14615
  -4  -4 -11 8045.72  498.06   1-0.46314-0.32135-0.61558-0.94672 0.63761 0.02117
   4  -4 -11 8000.23  449.94   1-0.58168-0.18960-0.14275-0.72311 0.80079 0.66418
   4  -4  11 8063.38  479.88   1 0.09180-0.36069 0.98772 0.84038-0.12639 0.40454
   4   4  11 6808.06  391.77   1-0.34546-0.48491 0.52749 0.85972-0.77614-0.16041
   4  -4 -12 1051.74  105.57   1 0.00005 0.43148 0.20447-0.39566 0.97887 0.81072
   4  -4  12 1143.25  137.77   1 0.00008-0.49159 0.95599 0.82870-0.29338 0.26755
   4   4  12 1081.35  136.73   1 0.00003-0.17866 0.62366 0.97453-0.78169-0.13547
  -4  -4 -12 1060.49  130.32   1 0.00003 0.18082-0.62313-0.97405 0.78211 0.13610
  -4  -4 -12 1011.07  148.78   1-0.46697-0.28669-0.60716-0.95801 0.64287-0.00389
   4  -4 -12  993.67  114.96   1-0.58006-0.14954-0.16065-0.76070 0.79856 0.63163
   4   4  12 1065.78  128.08   1-0.35710-0.53488 0.47833 0.83037-0.80229-0.15613
   4  -4  13 7482.56  395.85   1 0.00008-0.52997 0.92734 0.81975-0.37421 0.21709
   4   4  13 7545.20  394.10   1 0.00003-0.21704 0.59750 0.96808-0.80186-0.12528
  -4  -4 -13 7090.81  386.54   1 0.00003 0.21929-0.59686-0.96748 0.80234 0.12601
  -4  -4 -13 7131.11  432.73   1-0.47168-0.25292-0.59652-0.96708 0.64936-0.02773
   4  -4 -13 7042.73  379.43   1-0.57884-0.10988-0.17297-0.79271 0.79688 0.59960
   4   4  13 7637.29  395.99   1-0.36791-0.58402 0.42590 0.79775-0.82658-0.15000
   4  -4  14 3146.89  255.72   1 0.00007-0.56844 0.89256 0.80481-0.45092 0.17069
   4   4  14 3792.18  215.16   1 0.00003-0.25541 0.56967 0.95997-0.82187-0.11492
  -4  -4 -14 3601.76  202.50   1 0.00003 0.25777-0.56892-0.95924 0.82239 0.11575
  -4  -4 -14 3481.01  237.23   1-0.47709-0.21985-0.58393-0.97421 0.65680-0.05062
   4  -4 -14 3531.38  196.46   1-0.57805-0.07065-0.18043-0.81985 0.79579 0.56819
   4   4  14 3762.30  198.17   1-0.37777-0.63221 0.37005 0.76172-0.84873-0.14171
  -4  -6   0 6692.26  300.63   1 0.00008-0.35990 0.95866 0.72466-0.28453-0.58765
   4   6   0 6739.32  326.89   1 0.00002 0.36003 0.51833 0.75209-0.85517-0.55202
   4   6   0 6549.22  295.16   1 0.00008 0.35983-0.95891-0.72507 0.28369 0.58718
  -4  -6   0 6959.80  338.52   1 0.00002-0.35900-0.51957-0.75349 0.85442 0.55078
   4   6   0 7162.83  336.26   1-0.42041-0.06120-0.69875-0.46493 0.57878 0.88322
  -4  -6   0 6226.32  375.95   1-0.52148-0.88115 0.46112 0.22676 0.71792 0.41490
   4  -6   0 7944.67  421.64   1-0.46097-0.56922 0.62028 0.13716 0.63462 0.81066
   4   6   0 6510.05  319.46   1-0.29020 0.07046 0.70049 0.93415-0.65199-0.34983
   4  -6   1 1387.00  132.22   1 0.00008-0.14707 0.64169 0.17811 0.76696 0.97295
  -4  -6   1 1392.05  114.46   1 0.00008-0.39827 0.96837 0.75407-0.24950-0.52225
  -4  -6  -1 1351.76  114.30   1 0.00008-0.32152 0.95202 0.69831-0.30602-0.63950
   4   6   1 1474.98  135.80   1 0.00002 0.32166 0.54926 0.80274-0.83564-0.50212
   4   6  -1 1486.49  132.99   1 0.00001 0.39839 0.47196 0.68600-0.88161-0.60882
   4   6  -1 1474.35  117.60   1 0.00008 0.39829-0.96864-0.75454 0.24845 0.52156
   4   6   1 1405.73  114.66   1 0.00008 0.32137-0.95224-0.69866 0.30534 0.63920
  -4  -6  -1 1457.78  135.68   1 0.00002-0.32052-0.55025-0.80388 0.83499 0.50103
  -4  -6   1 1432.50  138.49   1 0.00001-0.39749-0.47354-0.68776 0.88076 0.60744
   4   6   1 1590.55  132.33   1-0.38113-0.06043-0.76119-0.50764 0.52470 0.85944
  -4  -6  -1 1289.95  161.70   1-0.57055-0.89184 0.23977-0.01424 0.78547 0.45211
   4  -6  -1 1558.87  180.08   1-0.49357-0.56344 0.54284 0.04005 0.67949 0.82518
   4  -6   1 1593.28  189.96   1-0.42307-0.56969 0.69409 0.23063 0.58243 0.78883
  -4  -6   1 1372.56  153.49   1-0.42298-0.82106 0.69425 0.47951 0.58231 0.30970
   4   6  -1 1404.21  134.35   1-0.28775 0.11124 0.70657 0.92042-0.64649-0.37476
   4   6   1 1419.11  142.28   1-0.29403 0.02831 0.69076 0.94425-0.66059-0.32800
   4  -6  -2 5040.27  292.13   1 0.00007-0.03143 0.46871-0.05406 0.88334 0.99804
   4  -6   2 4886.17  293.87   1 0.00009-0.18553 0.70271 0.25884 0.71147 0.94793
  -4  -6   2 4984.14  278.53   1 0.00009-0.43664 0.98083 0.78623-0.19485-0.43723
  -4  -6  -2 4770.77  265.94   1 0.00008-0.28315 0.94819 0.67479-0.31768-0.68152
   4   6   2 4668.59  280.51   1 0.00003 0.28329 0.56926 0.84245-0.82215-0.45827
   4   6  -2 4646.54  281.07   1 0.00001 0.43676 0.40269 0.59701-0.91533-0.67291
  -4   6  -2 4278.12  260.35   1 0.00009 0.18710-0.70287-0.25924-0.71131-0.94751
   4   6  -2 4750.82  267.29   1 0.00009 0.43674-0.98110-0.78674 0.19348 0.43622
   4   6   2 4468.32  253.56   1 0.00008 0.28292-0.94838-0.67506 0.31711 0.68134
  -4  -6  -2 5130.75  305.73   1 0.00003-0.28204-0.57005-0.84338 0.82160 0.45732
  -4  -6   2 5006.19  306.99   1 0.00001-0.43597-0.40476-0.59927 0.91441 0.67140
   4   6   2 5178.92  301.20   1-0.34757-0.06538-0.80637-0.53309 0.47849 0.84352
  -4  -6  -2 4529.55  317.77   1-0.58676-0.86944 0.05646-0.21711 0.80778 0.44377
   4  -6  -2 5343.80  347.05   1-0.52044-0.55198 0.46453-0.05788 0.71648 0.83184
   4  -6   2 5386.86  359.93   1-0.38071-0.56566 0.76179 0.31793 0.52413 0.76088
   4   6  -2 4539.33  273.48   1-0.28694 0.15038 0.70855 0.90259-0.64467-0.40337
   4   6   2 4405.83  273.43   1-0.29900-0.01499 0.67772 0.95102-0.67177-0.30876
   4  -6  -3  789.83  109.29   1 0.00007 0.00704 0.41885-0.12362 0.90805 0.99230
   4  -6   3  748.51  111.48   1 0.00009-0.22421 0.76220 0.33818 0.64733 0.91397
  -4  -6   3  820.06   94.07   1 0.00009-0.47503 0.99384 0.81846-0.11073-0.32318
   4   6   3 1075.78  120.44   1 0.00003 0.24492 0.58116 0.87406-0.81378-0.41954
   4   6  -3 1021.44  113.07   1-0.00000 0.47512 0.29713 0.47174-0.95483-0.74277
  -4   6  -3  978.13  116.75   1 0.00009 0.22553-0.76267-0.33885-0.64678-0.91340
  -4  -6  -3  831.55  119.30   1 0.00003-0.24356-0.58179-0.87483 0.81333 0.41874
  -4  -6   3  771.28  113.26   1-0.00000-0.47446-0.29999-0.47479 0.95394 0.74124
   4   6   3 1220.12  127.54   1-0.31780-0.07426-0.84117-0.54837 0.43752 0.83293
  -4  -6  -3  744.29  133.75   1-0.58567-0.82995-0.08287-0.37611 0.80629 0.41196
   4  -6  -3  888.38  142.45   1-0.54169-0.53485 0.38787-0.15421 0.74573 0.83074
   4  -6   3  843.43  164.04   1-0.33497-0.55830 0.82166 0.39745 0.46115 0.72823
   4   6  -3 1024.59  116.26   1-0.28807 0.18758 0.70579 0.88001-0.64720-0.43632
   4   6   3  973.27  122.43   1-0.30492-0.05924 0.66158 0.95469-0.68507-0.29163
   4  -6  -4 3959.90  198.99   1 0.00006 0.04552 0.37425-0.18790 0.92732 0.98113
   4  -6   4 3697.21  218.53   1 0.00010-0.26264 0.81857 0.41426 0.57439 0.87143
  -4  -6   4 4226.86  205.19   1 0.00010-0.51345 0.99964 0.84394 0.02677-0.15531
   4   6   4 4396.88  223.96   1 0.00003 0.20655 0.58684 0.89946-0.80970-0.38508
  -4   6  -4 4105.99  217.84   1 0.00010 0.26396-0.81915-0.41513-0.57357-0.87062
  -4  -6  -4 4215.38  227.29   1 0.00003-0.20508-0.58734-0.90008 0.80933 0.38442
  -4  -6  -4 3955.84  259.66   1-0.57730-0.78315-0.18727-0.50007 0.79476 0.36958
   4  -6  -4 4339.77  262.99   1-0.55774-0.51253 0.31518-0.24655 0.76784 0.82250
   4  -6   4 4148.41  275.90   1-0.28709-0.54881 0.87256 0.46799 0.39523 0.69266
   4   6  -4 4372.49  222.51   1-0.29146 0.22252 0.69732 0.85173-0.65481-0.47436
   4   6   4 4096.52  229.16   1-0.31160-0.10424 0.64250 0.95543-0.70006-0.27619
  -4  -6   5 1767.78  167.01   1 0.00004-0.55209 0.18057 0.04452 0.98356 0.83259
   4  -6  -5 2148.80  143.96   1 0.00006 0.08400 0.33529-0.24656 0.94211 0.96547
   4  -6   5 1947.22  161.40   1 0.00010-0.30106 0.86971 0.48511 0.49355 0.82099
  -4  -6   5 2379.38  161.05   1 0.00010-0.55169 0.95947 0.82384 0.28178 0.13000
   4   6   5 2097.39  154.72   1 0.00003 0.16818 0.58758 0.91992-0.80916-0.35418
  -4   6  -5 2012.15  156.36   1 0.00010 0.30239-0.87035-0.48613-0.49242-0.81989
  -4  -6  -5 2201.63  164.30   1 0.00003-0.16660-0.58796-0.92041 0.80888 0.35365
  -4  -6  -5 2136.82  200.69   1-0.56694-0.73435-0.26342-0.59590 0.78050 0.32498
   4  -6  -5 2352.61  196.70   1-0.56931-0.48572 0.24815-0.33324 0.78377 0.80809
   4  -6   5 2142.75  204.44   1-0.23825-0.53837 0.91414 0.52925 0.32799 0.65577
   4   6  -5 2157.49  150.07   1-0.29750 0.25481 0.68171 0.81630-0.66840-0.51838
   4   6   5 1933.37  157.32   1-0.31885-0.14982 0.62060 0.95334-0.71636-0.26206
   4  -6  -6 3523.91  192.68   1 0.00006 0.12249 0.30207-0.29948 0.95328 0.94620
   4  -6   6 3314.30  218.57   1 0.00010-0.33964 0.91359 0.54844 0.40661 0.76410
   4   6   6 2894.47  186.40   1 0.00003 0.12981 0.58428 0.93634-0.81154-0.32620
  -4   6  -6 2773.28  191.20   1 0.00010 0.34072-0.91446-0.54996-0.40466-0.76252
  -4  -6  -6 3715.68  216.73   1 0.00003-0.12813-0.58455-0.93671 0.81135 0.32580
  -4  -6  -6 3637.26  254.47   1-0.55698-0.68595-0.31905-0.67122 0.76679 0.28094
   4  -6  -6 3879.93  251.99   1-0.57723-0.45532 0.18786-0.41324 0.79467 0.78861
   4   6  -6 2856.63  182.19   1-0.30668 0.28396 0.65666 0.77144-0.68901-0.56942
   4  -6  -7  277.45   89.50   1 0.00005 0.16097 0.27453-0.34671 0.96157 0.92405
   4  -6   7  273.33  114.03   1 0.00010-0.37807 0.94951 0.60405 0.31371 0.70155
   4   6   7  346.62   97.77   1 0.00003 0.09144 0.57757 0.94934-0.81633-0.30063
  -4   6  -7  408.71  106.74   1 0.00010 0.37914-0.95029-0.60557-0.31136-0.69966
  -4  -6  -7  311.61  126.79   1-0.54844-0.63896-0.35935-0.73121 0.75503 0.23884
   4  -6  -7  273.39  106.43   1-0.58233-0.42203 0.13477-0.48598 0.80169 0.76531
   4   6   7  316.67  103.74   1-0.33449-0.24212 0.56864 0.94102-0.75150-0.23634
   4  -6  -8 3250.53  189.14   1 0.00005 0.19945 0.25250-0.38844 0.96759 0.89962
   4  -6   8 3161.50  230.13   1 0.00010-0.41651 0.97616 0.65039 0.21703 0.63521
   4   6   8 3379.39  218.30   1 0.00002 0.05306 0.56790 0.95939-0.82309-0.27702
  -4   6  -8 3311.49  218.70   1 0.00010 0.41778-0.97659-0.65144-0.21507-0.63331
  -4  -6  -8 3315.87  222.29   1 0.00002-0.05117-0.56797-0.95954 0.82304 0.27686
  -4  -6  -8 3410.51  251.70   1-0.54153-0.59330-0.38852-0.78008 0.74551 0.19864
   4  -6  -8 3498.36  240.81   1-0.58537-0.38666 0.08895-0.55147 0.80587 0.73916
   4   6   8 3127.70  212.40   1-0.34260-0.28855 0.53867 0.93086-0.76971-0.22412
   4  -6  -9 1060.21  110.92   1 0.00005 0.23797 0.23620-0.42446 0.97170 0.87361
   4  -6   9 1076.30  156.86   1 0.00010-0.45504 0.99291 0.68641 0.11887 0.56724
   4   6   9 1193.45  142.34   1 0.00002 0.01469 0.55562 0.96682-0.83143-0.25500
  -4   6  -9 1232.78  153.55   1 0.00010 0.45620-0.99326-0.68788-0.11590-0.56452
  -4  -6  -9 1141.10  137.86   1 0.00002-0.01269-0.55559-0.96686 0.83145 0.25495
  -4  -6  -9 1157.55  173.42   1-0.53647-0.54977-0.40830-0.81958 0.73856 0.16135
   4  -6  -9 1133.43  153.54   1-0.58696-0.34985 0.05014-0.60994 0.80806 0.71103
   4   6   9 1051.58  137.01   1-0.35072-0.33501 0.50606 0.91806-0.78796-0.21195
   4  -6 -10 2742.90  148.04   1 0.00005 0.27646 0.22442-0.45595 0.97449 0.84597
   4  -6  10 2773.29  191.42   1 0.00010-0.49346 0.99981 0.71300 0.01938 0.49811
   4   6  10 2583.82  159.89   1 0.00002-0.02367 0.54096 0.97188-0.84104-0.23424
  -4  -6 -10 2915.32  163.59   1 0.00002 0.02577-0.54084-0.97181 0.84112 0.23431
  -4  -6 -10 2750.60  210.81   1-0.53303-0.50785-0.42114-0.85213 0.73382 0.12629
   4  -6 -10 2854.03  197.07   1-0.58760-0.31209 0.01792-0.66182 0.80894 0.68160
   4  -6  10 2968.15  213.17   1-0.00825-0.50032 0.99990 0.71327 0.01137 0.49082
   4   6  10 2334.63  166.42   1-0.35875-0.38136 0.47081 0.90262-0.80599-0.19955
   4  -6 -11  338.26   88.42   1 0.00005 0.31495 0.21732-0.48276 0.97610 0.81715
   4  -6  11  315.72  116.18   1 0.00009-0.53188 0.99684 0.72971-0.07941 0.42966
  -4  -6 -11  307.96  113.86   1 0.00002 0.06425-0.52388-0.97457 0.85178 0.21465
  -4  -6 -11  293.62  123.41   1-0.53102-0.46736-0.42843-0.87913 0.73106 0.09319
   4  -6 -11  299.09  126.21   1-0.58768-0.27377-0.00823-0.70763 0.80905 0.65138
   4  -6  11  344.78  138.38   1 0.03221-0.49824 0.99849 0.73152-0.04435 0.46543
   4   6  11  332.70  111.17   1-0.36656-0.42750 0.43289 0.88452-0.82354-0.18668
   4  -6 -12 2789.04  214.55   1 0.00005 0.35345 0.21462-0.50516 0.97669 0.78732
   4  -6  12 2864.09  250.51   1 0.00009-0.56982 0.98422 0.73738-0.17693 0.36270
  -4  -6 -12 2828.78  228.08   1 0.00002 0.10273-0.50486-0.97525 0.86319 0.19575
  -4  -6 -12 2817.65  269.07   1-0.53025-0.42811-0.43119-0.90160 0.72999 0.06180
   4  -6 -12 2812.36  244.31   1-0.58745-0.23514-0.02884-0.74790 0.80874 0.62075
   4  -6  12 3208.47  279.93   1 0.07064-0.49820 0.99274 0.74542-0.09725 0.44286
   4   6  12 2467.44  219.16   1-0.37404-0.47331 0.39227 0.86372-0.84036-0.17306
   4  -8   0 2520.93  170.80   1 0.00008-0.18674 0.56179-0.04104 0.82727 0.98154
   4   8   0 2547.59  179.77   1-0.00000 0.43826 0.28336 0.63661-0.95901-0.63454
  -4  -8   0 2772.29  191.14   1-0.00000-0.43711-0.28514-0.63854 0.95848 0.63340
  -4  -8   0 2597.10  220.88   1-0.47685-0.91454 0.58451 0.23053 0.65647 0.33235
   4   8   0 2317.66  174.51   1-0.34335 0.09582 0.53575 0.88882-0.77140-0.44811
   4  -8  -1 3487.48  205.89   1 0.00007-0.14795 0.51212-0.11059 0.85891 0.98279
   4  -8   1 3379.40  210.14   1 0.00008-0.22520 0.61429 0.03117 0.78907 0.97381
  -4  -8   1 3417.37  179.85   1 0.00008-0.47651 0.93913 0.60528-0.34356-0.63761
   4   8   1 3954.38  230.40   1 0.00000 0.39989 0.32882 0.70178-0.94439-0.58956
   4   8  -1 3972.46  240.20   1-0.00000 0.47662 0.22265 0.55618-0.97489-0.68079
  -4  -8  -1 3754.72  231.57   1 0.00000-0.39862-0.33031-0.70341 0.94387 0.58847
  -4  -8   1 3643.23  225.18   1-0.00000-0.47559-0.22478-0.55847 0.97440 0.67964
  -4  -8  -1 3352.86  256.79   1-0.52683-0.92611 0.44318 0.06957 0.72528 0.37076
   4  -8  -1 4217.35  292.04   1-0.47638-0.62424 0.58561-0.03674 0.65582 0.78036
  -4  -8   1 3667.18  255.66   1-0.40693-0.88281 0.72149 0.38688 0.56021 0.26637
   4   8  -1 3624.53  210.84   1-0.34380 0.13370 0.53401 0.86726-0.77241-0.47955
   4   8   1 3658.62  232.54   1-0.34399 0.05685 0.53325 0.90614-0.77285-0.41912
   4  -8   211774.84  486.78   1 0.00009-0.26365 0.66855 0.10514 0.74366 0.95886
  -4  -8   211828.92  454.23   1 0.00008-0.51488 0.95050 0.63636-0.31070-0.57439
   4   8   214081.68  651.10   1 0.00000 0.36153 0.36252 0.75520-0.93197-0.54678
  -4   8  -212654.53  504.89   1 0.00009 0.26561-0.66885-0.10579-0.74339-0.95825
  -4  -8  -212750.21  525.46   1 0.00000-0.36014-0.36378-0.75659 0.93148 0.54576
  -4  -8   212222.38  518.91   1-0.00001-0.51408-0.14422-0.45820 0.98954 0.72509
  -4  -8  -211157.58  533.96   1-0.55863-0.91954 0.31059-0.08267 0.76906 0.38419
   4  -8  -214243.25  669.66   1-0.50064-0.61013 0.52374-0.11828 0.68923 0.78341
  -4  -8   212795.42  562.10   1-0.31827-0.83255 0.84066 0.52569 0.43816 0.17465
   4   8   212587.04  527.25   1-0.34559 0.01693 0.52698 0.91968-0.77643-0.39228
   4   8  -212710.20  516.91   1-0.34548 0.17035 0.52741 0.84085-0.77619-0.51375
  -4  -8   3 3754.56  237.49   1 0.00002-0.55315-0.03130-0.32642 0.99950 0.76646
   4  -8   3 3695.44  223.55   1 0.00009-0.30210 0.72330 0.17961 0.69053 0.93620
   4   8   3 3870.72  234.90   1 0.00000 0.32316 0.38697 0.79937-0.92208-0.50653
  -4   8  -3 3584.16  213.48   1 0.00009 0.30396-0.72368-0.18039-0.69013-0.93544
  -4  -8  -3 3906.35  229.85   1 0.00000-0.32166-0.38804-0.80055 0.92163 0.50560
  -4  -8  -3 3770.99  267.70   1-0.57673-0.89900 0.19231-0.22049 0.79397 0.37839
   4  -8  -3 4406.15  294.88   1-0.52092-0.59208 0.46296-0.19869 0.71714 0.78099
  -4  -8   3 4075.71  240.75   1-0.21851-0.77119 0.92830 0.63299 0.30082 0.06766
   4   8  -3 3668.59  212.39   1-0.34854 0.20563 0.51511 0.80874-0.78305-0.55104
   4   8   3 3480.60  215.52   1-0.34800-0.02381 0.51729 0.92980-0.78185-0.36727
  -4  -8   4 1313.88  146.39   1 0.00004-0.59163 0.11706-0.15833 0.99312 0.79050
   4  -8  -4 1373.93  132.18   1 0.00006-0.03251 0.38648-0.29531 0.92229 0.95484
   4  -8   4 1304.63  148.81   1 0.00009-0.34078 0.77682 0.25301 0.62971 0.90545
   4   8   4 1451.75  142.45   1 0.00001 0.28479 0.40400 0.83611-0.91475-0.46883
  -4   8  -4 1350.93  140.74   1 0.00009 0.34239-0.77755-0.25407-0.62881-0.90455
  -4  -8  -4 1571.00  152.45   1 0.00001-0.28318-0.40490-0.83712 0.91435 0.46801
  -4  -8  -4 1370.66  175.54   1-0.58516-0.86903 0.09276-0.33970 0.80558 0.35968
   4  -8  -4 1638.40  191.64   1-0.53746-0.57025 0.40452-0.27679 0.73992 0.77342
  -4  -8   4 1475.63  134.24   1-0.11801-0.70908 0.97963 0.70396 0.16247-0.04035
   4   8   4 1299.18  139.35   1-0.35111-0.06524 0.50443 0.93676-0.78884-0.34383
   4   8  -4 1398.88  138.66   1-0.35310 0.23939 0.49596 0.76977-0.79330-0.59172
   4  -8  -5 2989.04  205.43   1 0.00006 0.00597 0.35358-0.34791 0.93540 0.93750
   4  -8   5 2897.29  234.02   1 0.00010-0.37921 0.82808 0.32398 0.56060 0.86673
   4   8   5 3169.74  232.76   1 0.00001 0.24642 0.41495 0.86677-0.90984-0.43355
  -4   8  -5 3052.01  223.78   1 0.00010 0.38082-0.82889-0.32521-0.55940-0.86557
  -4  -8  -5 3068.28  234.70   1 0.00001-0.24470-0.41570-0.86762 0.90950 0.43283
  -4  -8  -5 2888.48  242.98   1-0.58766-0.83314 0.01040-0.44171 0.80903 0.33280
   4  -8  -5 3366.16  257.33   1-0.55062-0.54503 0.34954-0.35143 0.75804 0.76120
   4  -8   5 3008.62  262.53   1-0.25889-0.63697 0.89774 0.39321 0.35642 0.66305
  -4  -8   5 2984.08  236.05   1-0.02554-0.65500 0.99905 0.74304 0.03516-0.13732
   4   8   5 2880.05  201.92   1-0.35479-0.10725 0.48861 0.94075-0.79710-0.32167
   4  -8  -611365.28  580.82   1 0.00006 0.04445 0.32537-0.39582 0.94558 0.91724
   4  -8   610757.67  591.09   1 0.00010-0.41763 0.87521 0.39082 0.48373 0.82026
   4   8   612341.38  666.96   1 0.00001 0.20805 0.42082 0.89236-0.90714-0.40048
  -4   8  -611811.51  620.59   1 0.00010 0.41914-0.87595-0.39197-0.48239-0.81894
  -4  -8  -611637.36  618.10   1 0.00001-0.20622-0.42143-0.89306 0.90685 0.39987
  -4  -8  -611402.32  646.84   1-0.58676-0.79383-0.05649-0.52828 0.80778 0.30123
   4  -8  -613065.67  706.58   1-0.56084-0.51687 0.29882-0.42181 0.77210 0.74492
   4  -8   611891.09  678.47   1-0.21577-0.63224 0.93016 0.44529 0.29705 0.63401
   4   8   610935.58  591.46   1-0.35893-0.14972 0.46998 0.94194-0.80640-0.30053
   4  -8  -7 3193.52  163.16   1 0.00006 0.08293 0.30177-0.43910 0.95337 0.89459
   4   8   7 3846.36  209.96   1 0.00001 0.16968 0.42239 0.91364-0.90641-0.36939
  -4   8  -7 3773.48  203.59   1 0.00010 0.45756-0.91736-0.45318-0.39803-0.76502
  -4  -8  -7 3256.67  194.58   1 0.00001-0.16774-0.42287-0.91421 0.90618 0.36889
   4  -8  -7 3552.85  229.65   1-0.56859-0.48625 0.25288-0.48741 0.78277 0.72524
   4  -8   7 3513.92  267.02   1-0.17243-0.62729 0.95598 0.49077 0.23738 0.60468
   4  -8  -8 1036.03  124.17   1 0.00005 0.12142 0.28269-0.47789 0.95921 0.86998
   4  -8   8  981.45  148.16   1 0.00010-0.49463 0.95064 0.50531 0.31027 0.70710
   4   8   8 1129.42  137.60   1 0.00001 0.13130 0.42022 0.93119-0.90741-0.34004
  -4  -8  -8 1096.28  130.52   1 0.00001-0.12926-0.42059-0.93163 0.90725 0.33963
  -4  -8  -8 1095.02  163.35   1-0.58079-0.71095-0.15284-0.66396 0.79957 0.23170
   4  -8  -8 1249.53  167.37   1-0.57434-0.45361 0.21198-0.54798 0.79069 0.70281
   4  -8   8 1174.93  181.31   1-0.12940-0.62264 0.97545 0.52989 0.17814 0.57577
   4   8   8  913.54  134.66   1-0.36813-0.23558 0.42473 0.93632-0.82708-0.26036
   4  -8  -9 1543.81  144.07   1 0.00005 0.15990 0.26794-0.51233 0.96343 0.84376
   4  -8   9 1474.92  176.56   1 0.00010-0.53307 0.97664 0.55099 0.21487 0.64205
   4   8   9 1421.78  162.48   1 0.00001 0.09293 0.41477 0.94546-0.90992-0.31217
  -4  -8  -9 1556.56  194.41   1-0.57747-0.66919-0.18574-0.71655 0.79499 0.19679
   4  -8  -9 1769.36  186.25   1-0.57851-0.41939 0.17615-0.60350 0.79642 0.67815
   4  -8   9 1726.91  214.82   1-0.08708-0.61872 0.98896 0.56304 0.11989 0.54786
   4   8   9 1212.37  153.88   1-0.37300-0.27877 0.39825 0.92966-0.83801-0.24086
   4  -8 -10 7094.43  242.98   1 0.00005 0.19838 0.25734-0.54262 0.96631 0.81620
   4  -8  10 6647.81  332.76   1 0.00010-0.57167 0.99322 0.58673 0.11617 0.57352
   4   8  10 7796.38  332.77   1 0.00001 0.05456 0.40639 0.95679-0.91369-0.28558
  -4  -8 -10 7076.52  318.48   1-0.57449-0.62777-0.21078-0.76127 0.79090 0.16236
   4  -8 -10 7838.20  311.62   1-0.58145-0.38394 0.14537-0.65393 0.80048 0.65188
   4  -8  10 7862.06  344.79   1-0.04580-0.61583 0.99695 0.59069 0.06306 0.52136
   4   8  10 6757.89  267.29   1-0.37790-0.32200 0.36925 0.92047-0.84902-0.22144
  -4 -10   0 2293.33  199.25   1 0.00002-0.51571-0.08303-0.55695 0.99654 0.65103
   4 -10   0 2172.92  185.87   1 0.00008-0.26487 0.57291-0.14946 0.81961 0.95262
   4 -10   0 2630.57  239.58   1-0.42708-0.69131 0.68695-0.03534 0.58795 0.72169
   4  10   0 2041.59  178.26   1-0.37581 0.14187 0.38190 0.85438-0.84434-0.49990
  -4 -10   1 2461.70  204.11   1 0.00003-0.55420-0.01917-0.47334 0.99981 0.68469
   4 -10  -1 2357.86  194.03   1 0.00008-0.22641 0.52987-0.21222 0.84807 0.95063
   4 -10   1 2322.72  184.07   1 0.00008-0.30332 0.61861-0.08404 0.78569 0.94917
  -4 -10  -1 2365.28  189.02   1-0.00001-0.47672-0.13672-0.62929 0.99061 0.61377
   4 -10  -1 2857.28  268.21   1-0.45289-0.67874 0.63729-0.10466 0.62349 0.72687
   4 -10   1 2966.60  269.33   1-0.39839-0.70085 0.73515 0.03238 0.54847 0.71257
   4  10  -1 1986.18  174.56   1-0.37710 0.17892 0.37417 0.82684-0.84722-0.53321
   4  10   1 1971.45  173.39   1-0.37527 0.10409 0.38515 0.87744-0.84310-0.46824
   4 -10  -2 3683.68  234.39   1 0.00007-0.18751 0.49007-0.27197 0.87167 0.94385
   4 -10   2 3643.87  245.20   1 0.00009-0.34177 0.66629-0.01665 0.74568 0.93963
   4  10   2 4143.06  262.22   1-0.00001 0.43976 0.17522 0.68738-0.98452-0.57802
  -4  10  -2 3805.36  242.83   1 0.00009 0.34405-0.66677 0.01575-0.74526-0.93881
  -4 -10  -2 3792.64  257.37   1-0.00001-0.43824-0.17686-0.68914 0.98423 0.57708
   4 -10  -2 4256.54  316.71   1-0.47567-0.66316 0.58727-0.17434 0.65486 0.72788
   4 -10   2 4528.87  335.31   1-0.36694-0.70778 0.78113 0.09800 0.50516 0.69960
   4  10   2 3470.04  235.26   1-0.37539 0.06564 0.38442 0.89652-0.84338-0.43809
   4  10  -2 3693.54  237.62   1-0.37916 0.21518 0.36135 0.79420-0.85185-0.56827
   4 -10  -3 1050.09  140.76   1 0.00007-0.14903 0.45376-0.32797 0.89112 0.93285
   4 -10   3 1028.09  135.80   1 0.00009-0.38023 0.71509 0.05186 0.69902 0.92343
   4  10   3  966.27  139.63   1-0.00001 0.40140 0.20679 0.73867-0.97838-0.54151
  -4  10  -3  919.23  125.08   1 0.00009 0.38239-0.71563-0.05288-0.69847-0.92248
  -4 -10  -3 1056.79  143.96   1-0.00001-0.39976-0.20823-0.74022 0.97807 0.54061
  -4 -10  -3  950.95  162.63   1-0.54055-0.94108 0.39242-0.14007 0.74417 0.30780
   4 -10   3 1276.33  206.76   1-0.33306-0.71229 0.82390 0.16043 0.45852 0.68330
   4  10   3  819.44  128.92   1-0.37612 0.02658 0.38008 0.91201-0.84502-0.40930
   4 -10  -4 2092.02  193.80   1 0.00007-0.11054 0.42120-0.38023 0.90696 0.91825
   4 -10   4 2217.14  218.99   1 0.00009-0.41892 0.76370 0.12040 0.64556 0.90000
   4  10   4 2305.35  206.06   1-0.00000 0.36303 0.23100 0.78259-0.97295-0.50572
  -4  10  -4 2132.49  195.49   1 0.00009 0.42082-0.76459-0.12163-0.64451-0.89894
  -4 -10  -4 2283.00  218.92   1-0.00000-0.36127-0.23226-0.78395 0.97265 0.50487
  -4 -10  -4 1989.43  213.07   1-0.55909-0.92123 0.30819-0.24397 0.76969 0.30297
   4 -10   4 2509.53  271.43   1-0.29715-0.71477 0.86275 0.21892 0.40909 0.66420
   4  10   4 1938.81  191.92   1-0.37738-0.01300 0.37245 0.92418-0.84785-0.38170
   4 -10   5 2806.14  251.83   1 0.00009-0.45735 0.81147 0.18788 0.58437 0.86921
   4  10   5 2460.73  224.30   1-0.00000 0.32466 0.24895 0.82026-0.96851-0.47091
  -4 -10  -5 2730.24  237.16   1-0.00000-0.32279-0.25005-0.82144 0.96823 0.47013
  -4 -10  -5 2571.10  246.57   1-0.57148-0.89525 0.23329-0.33853 0.78675 0.28968
   4 -10   5 2974.02  294.73   1-0.25962-0.71565 0.89713 0.27298 0.35741 0.64289
   4  10   5 2090.23  203.54   1-0.37909-0.05305 0.36175 0.93330-0.85171-0.35514
   4 -10  -6 2158.58  152.97   1 0.00006-0.03358 0.36769-0.47313 0.92994 0.88035
   4 -10   6 2174.87  191.50   1 0.00010-0.49577 0.85685 0.25296 0.51556 0.83079
   4  10   6 2322.01  177.60   1-0.00000 0.28629 0.26154 0.85256-0.96519-0.43723
  -4 -10  -6 2158.59  174.51   1-0.00000-0.28431-0.26248-0.85358 0.96493 0.43651
  -4 -10  -6 2071.68  185.77   1-0.57941-0.86448 0.16728-0.42406 0.79767 0.26987
   4 -10   6 2324.46  253.72   1-0.22097-0.71540 0.92661 0.32211 0.30421 0.62003
   4  10   6 1994.27  169.04   1-0.38119-0.09347 0.34817 0.93954-0.85642-0.32942
  -5   1   011194.14  547.85   1 0.00009-0.11792 0.66557 0.88118 0.74633 0.45783
  -5  -1   011224.87  554.60   1 0.00010-0.19570 0.86593 0.96202 0.50015 0.19029
   5  -1   010781.69  524.02   1 0.00010 0.11759 0.90442 0.68888 0.42662 0.71527
   5   1   011073.11  535.94   1 0.00010 0.19577 0.99703 0.90111 0.07698 0.38687
   5  -1   010656.64  516.69   1 0.00009 0.11725-0.66533-0.88113-0.74654-0.45810
   5   1   011101.14  532.49   1 0.00010 0.19573-0.86556-0.96186-0.50080-0.19106
  -5  -1   010720.02  532.87   1 0.00010-0.19534-0.99691-0.90065-0.07844-0.38814
  -5   1   0 9507.83  526.44   1-0.54505-0.66315 0.37399 0.58924 0.75036 0.46153
  -5  -1   0 9756.73  529.13   1-0.51338-0.70948 0.48673 0.58240 0.70677 0.39677
   5  -1   011035.10  554.94   1-0.35568-0.23754 0.79605 0.58091 0.48967 0.77853
   5   1   011298.51  548.17   1-0.09688 0.09920 0.98631 0.89081 0.13337 0.44340
  -5   1   1 6361.49  349.43   1 0.00008-0.15638 0.58119 0.81652 0.81376 0.55573
  -5  -1   1 6134.22  340.86   1 0.00009-0.23413 0.80382 0.91962 0.59486 0.31539
   5  -1  -1 5769.62  316.42   1 0.00010 0.15619 0.86384 0.62855 0.50375 0.76191
  -5  -1  -1 6085.54  337.59   1 0.00010-0.15707 0.90820 0.98448 0.41853 0.07818
   5  -1   1 5614.12  313.55   1 0.00010 0.07916 0.93805 0.74219 0.34649 0.66548
   5   1  -1 6059.25  326.14   1 0.00010 0.23415 0.98908 0.87341 0.14733 0.42698
   5   1   1 6073.54  330.28   1 0.00009 0.15734 0.99995 0.92372 0.00901 0.34925
   5  -1   1 5854.24  317.63   1 0.00009 0.07886-0.73319-0.92916-0.68001-0.36116
   5   1  -1 6029.43  326.93   1 0.00009 0.23415-0.80314-0.91925-0.59578-0.31646
  -5   1   1 5886.42  324.76   1 0.00010-0.15552-0.86325-0.62768-0.50476-0.76277
   5   1   1 5737.80  310.49   1 0.00010 0.15735-0.90784-0.98436-0.41931-0.07919
  -5  -1   1 5533.12  316.76   1 0.00010-0.23377-0.98880-0.87277-0.14921-0.42851
  -5  -1  -1 5587.08  320.84   1 0.00009-0.15691-0.99994-0.92346-0.01003-0.35013
  -5  -1   1 5216.92  360.43   1-0.58288-0.81714 0.12773 0.24316 0.80245 0.52262
  -5   1   1 5637.40  379.42   1-0.57814-0.73441 0.17960 0.41460 0.79592 0.53734
  -5   1  -1 5092.55  320.82   1-0.49577-0.57556 0.53699 0.73258 0.68252 0.36337
   5  -1  -1 5943.58  344.07   1-0.43190-0.27536 0.67816 0.44326 0.59459 0.85304
  -5  -1  -1 5176.71  312.88   1-0.41030-0.56800 0.71594 0.79181 0.56486 0.22450
   5  -1   1 5828.59  335.38   1-0.27616-0.19642 0.88271 0.68721 0.38020 0.69939
   5   1  -1 6338.09  346.85   1-0.22183 0.01263 0.92602 0.81086 0.30540 0.58509
   5   1   1 5821.48  319.48   1-0.00839 0.14930 0.99989 0.92404 0.01155 0.35191
  -5   1   2 8027.36  351.11   1 0.00007-0.19491 0.48012 0.73492 0.87720 0.64952
  -5  -1   2 7654.21  341.60   1 0.00009-0.27295 0.71420 0.84970 0.69993 0.45111
  -5   1  -2 8255.46  357.56   1 0.00009-0.04071 0.78623 0.96239 0.61793 0.26857
   5  -1  -2 7129.03  310.23   1 0.00010 0.19462 0.81768 0.56268 0.57566 0.80343
  -5  -1  -2 7221.48  315.99   1 0.00010-0.11864 0.93615 0.99275 0.35157-0.01912
   5  -1   2 7103.98  321.84   1 0.00010 0.04072 0.96430 0.78814 0.26480 0.61414
   5   1  -2 7823.14  328.36   1 0.00010 0.27259 0.97565 0.84028 0.21932 0.46862
   5   1   2 7538.02  333.23   1 0.00009 0.11892 0.99841 0.94186-0.05633 0.31425
   5   1  -2 7792.96  327.21   1 0.00009 0.27257-0.71365-0.84956-0.70049-0.45160
   5  -1   2 7406.89  319.69   1 0.00009 0.04044-0.78621-0.96238-0.61795-0.26866
  -5   1   2 7602.70  326.23   1 0.00010-0.19395-0.81683-0.56146-0.57686-0.80444
   5   1   2 7296.32  309.59   1 0.00010 0.11893-0.93600-0.99272-0.35199 0.01854
  -5   1  -2 7555.30  334.03   1 0.00010-0.04030-0.96422-0.78802-0.26508-0.61432
  -5  -1   2 7170.38  325.01   1 0.00010-0.27240-0.97507-0.83918-0.22188-0.47070
  -5  -1   2 6736.63  364.47   1-0.56494-0.83759-0.27556-0.14013 0.77775 0.52801
  -5   1   2 7152.76  398.92   1-0.58746-0.78213-0.02820 0.22645 0.80875 0.58050
   5  -1  -2 7689.57  357.27   1-0.49607-0.30115 0.53620 0.28163 0.68293 0.91103
  -5   1  -2 6477.86  320.54   1-0.44071-0.48213 0.66155 0.83748 0.60672 0.25721
   5   1  -2 8049.86  352.74   1-0.37498-0.10212 0.76998 0.63517 0.51624 0.76558
  -5  -1  -2 6454.51  304.48   1-0.31874-0.43805 0.84015 0.89636 0.43880 0.06811
   5  -1   2 7568.33  344.69   1-0.19992-0.15857 0.94035 0.76452 0.27523 0.62478
   5   1   2 7420.34  317.88   1 0.05485 0.17416 0.99563 0.93943-0.07552 0.29517
  -5   1   3 6929.61  326.57   1 0.00006-0.23341 0.36233 0.63683 0.93204 0.73481
  -5  -1   3 7930.01  354.88   1 0.00008-0.31141 0.59111 0.74632 0.80658 0.58822
   5  -1  -3 7244.93  307.46   1 0.00009 0.23304 0.76760 0.49289 0.64091 0.83829
  -5   1  -3 7241.40  323.01   1 0.00010-0.00228 0.82666 0.98312 0.56269 0.18294
   5   1  -3 6961.02  298.79   1 0.00010 0.31102 0.95641 0.80135 0.29202 0.51097
   5  -1   3 7227.30  321.13   1 0.00010 0.00228 0.98310 0.82663 0.18303 0.56272
   5   1   3 6791.04  309.82   1 0.00009 0.08050 0.99290 0.95603-0.11894 0.28199
  -5   1   3 6561.68  286.16   1 0.00009-0.23237-0.76649-0.49132-0.64224-0.83940
   5  -1   3 7672.91  326.57   1 0.00010 0.00202-0.82677-0.98314-0.56252-0.18281
   5   1   3 6440.16  277.89   1 0.00010 0.08051-0.95450-0.99144-0.29820 0.10277
  -5  -1   3 7157.27  317.66   1 0.00010-0.31083-0.95543-0.79975-0.29519-0.51359
  -5   1  -3 6762.17  310.75   1 0.00010-0.00164-0.98306-0.82661-0.18325-0.56276
  -5  -1   3 7273.53  381.30   1-0.48252-0.79353-0.57086-0.41547 0.66429 0.44461
  -5   1   3 6485.07  367.40   1-0.57264-0.80564-0.22491 0.04977 0.78834 0.59029
   5  -1  -3 7500.49  347.35   1-0.54242-0.30918 0.38490 0.11067 0.74674 0.94454
   5   1  -3 7120.30  331.34   1-0.50440-0.19312 0.51320 0.35856 0.69440 0.91330
  -5  -1  -3 6766.79  306.71   1-0.24927-0.33019 0.90559 0.94213 0.34317-0.05786
   5  -1   3 7592.75  340.51   1-0.13060-0.12764 0.97499 0.81881 0.17980 0.55968
   5   1   3 6947.15  314.18   1 0.10266 0.18358 0.98462 0.94807-0.14133 0.25970
  -5   1   412819.02  522.68   1 0.00005-0.27187 0.23206 0.52618 0.97270 0.80574
  -5  -1   414046.48  556.93   1 0.00007-0.34993 0.43214 0.60670 0.90180 0.71375
   5  -1  -412856.28  488.21   1 0.00009 0.27193 0.71536 0.42089 0.69875 0.86539
  -5   1  -413727.43  538.78   1 0.00010 0.03614 0.85706 0.99380 0.51520 0.10506
   5   1  -413127.12  508.77   1 0.00010 0.34946 0.93140 0.75665 0.36398 0.55258
  -5  -1  -413491.51  509.49   1 0.00010-0.04177 0.96651 0.98372 0.25662-0.17478
   5  -1   412988.36  506.12   1 0.00010-0.03611 0.99470 0.85784 0.10272 0.51263
   5   1   412847.39  506.09   1 0.00009 0.04231 0.98390 0.96669-0.17870 0.25239
  -5   1   412507.72  470.17   1 0.00009-0.27080-0.71442-0.41945-0.69971-0.86644
   5  -1   413678.54  512.10   1 0.00010-0.03640-0.85726-0.99383-0.51486-0.10473
  -5  -1   413108.12  498.51   1 0.00010-0.34925-0.92992-0.75444-0.36776-0.55572
   5   1   412221.75  456.35   1 0.00010 0.04208-0.96653-0.98368-0.25651 0.17489
  -5   1  -412899.44  501.60   1 0.00010 0.03678-0.99475-0.85807-0.10229-0.51220
  -5  -1  -413438.26  527.83   1 0.00009-0.04138-0.98389-0.96672 0.17876-0.25244
  -5  -1   412939.54  559.39   1-0.39634-0.74563-0.73837-0.56332 0.54563 0.35593
  -5   1   412189.42  569.32   1-0.54022-0.81156-0.39377-0.09911 0.74371 0.57579
   5   1  -413656.01  535.29   1-0.56966-0.22005 0.24583 0.07152 0.78424 0.97286
   5  -1  -414005.24  554.43   1-0.57046-0.29884 0.24041-0.05348 0.78534 0.95280
  -5  -1  -412110.43  478.29   1-0.19947-0.24200 0.94063 0.95752 0.27461-0.15674
   5  -1   413511.04  544.40   1-0.06913-0.10456 0.99305 0.85653 0.09517 0.50539
  -5   1   5 5533.06  293.82   1 0.00004-0.31038 0.09307 0.40689 0.99565 0.85912
  -5  -1   5 5623.58  297.19   1 0.00005-0.38839 0.23925 0.43342 0.97095 0.81319
   5  -1  -5 5242.37  245.14   1 0.00009 0.31038 0.66399 0.34981 0.74773 0.88390
  -5   1  -5 6247.58  298.07   1 0.00010 0.07457 0.87955 0.99659 0.47579 0.03525
   5   1  -5 6058.70  281.23   1 0.00010 0.38804 0.90066 0.70602 0.43451 0.59240
  -5  -1  -5 5845.56  284.35   1 0.00010-0.00333 0.97420 0.97172 0.22565-0.23609
   5   1   5 5763.00  282.14   1 0.00008 0.00393 0.97175 0.97424-0.23601 0.22544
  -5   1   5 5526.64  258.09   1 0.00009-0.30920-0.66293-0.34811-0.74867-0.88498
  -5  -1   5 5471.20  265.99   1 0.00010-0.38767-0.89913-0.70386-0.43767-0.59521
   5   1   5 5680.15  269.48   1 0.00010 0.00366-0.97427-0.97163-0.22536 0.23647
  -5   1  -5 5902.64  290.86   1 0.00010 0.07521-0.99972-0.88282-0.02333-0.46364
  -5  -1  -5 5597.50  281.71   1 0.00008-0.00293-0.97169-0.97426 0.23622-0.22536
  -5  -1   5 5419.60  310.60   1-0.32724-0.71492-0.83063-0.63575 0.45051 0.29101
  -5   1   5 5760.89  351.35   1-0.49809-0.80791-0.53074-0.21637 0.68572 0.54813
   5   1  -5 6039.11  292.84   1-0.58731-0.19945 0.03612-0.15794 0.80855 0.96709
   5  -1  -5 5866.34  301.43   1-0.58380-0.27393 0.11497-0.19866 0.80371 0.94100
  -5   1  -5 5012.04  265.86   1-0.30378-0.22997 0.85604 0.97294 0.41821-0.02231
  -5  -1  -5 5040.76  259.36   1-0.16461-0.16875 0.95997 0.95721 0.22661-0.23508
   5  -1   5 5650.44  282.38   1-0.01505-0.08886 0.99967 0.88279 0.02072 0.46127
  -5   1   6 7415.51  354.46   1 0.00002-0.34887-0.04819 0.28532 0.99883 0.89267
  -5  -1   6 6446.65  323.66   1 0.00003-0.42691 0.02426 0.23813 0.99970 0.87237
   5  -1  -6 7195.79  300.54   1 0.00008 0.34883 0.61543 0.28153 0.78818 0.89389
   5   1  -6 8560.14  351.22   1 0.00010 0.42647 0.86638 0.65203 0.49937 0.62686
  -5   1  -6 8503.94  358.57   1 0.00010 0.11300 0.89591 0.99323 0.44423-0.02670
   5   1   6 8218.76  369.56   1 0.00008-0.03443 0.95678 0.97898-0.29080 0.20102
  -5  -1   6 7399.24  320.20   1 0.00010-0.42608-0.86441-0.64931-0.50277-0.62995
   5  -1   6 7071.97  310.63   1 0.00010-0.11317-0.89616-0.99320-0.44372 0.02723
  -5   1  -6 8204.35  361.80   1 0.00009 0.11364-0.99859-0.90146 0.05303-0.41766
  -5  -1  -6 7523.46  342.77   1 0.00008 0.03551-0.95667-0.97898 0.29115-0.20080
  -5   1   6 8429.12  431.14   1-0.45297-0.80121-0.63712-0.30311 0.62360 0.51592
   5   1  -6 8409.96  384.05   1-0.58408-0.15767-0.11079-0.32495 0.80409 0.93249
   5  -1  -6 7861.29  359.77   1-0.58766-0.23939 0.01136-0.32192 0.80902 0.91599
  -5   1  -6 7285.53  335.40   1-0.27344-0.16124 0.88516 0.98238 0.37644-0.09443
  -5  -1  -6 6629.92  297.86   1-0.14070-0.10645 0.97091 0.94850 0.19370-0.29833
   5  -1   6 7530.79  337.09   1 0.03263-0.07957 0.99845 0.90123-0.04492 0.42595
   5   1   6 7948.56  359.78   1-0.13372-0.16808 0.94438 0.96699-0.30043 0.19147
   5  -1  -7 2670.51  161.73   1 0.00008 0.38729 0.57150 0.21789 0.82059 0.89583
   5   1  -7 3121.62  182.81   1 0.00010 0.46490 0.83016 0.59610 0.55751 0.65461
   5  -1   7 2777.70  192.65   1 0.00009-0.15137 0.99212 0.91430-0.12529 0.37567
   5   1  -7 2891.30  179.95   1-0.00001 0.46425 0.19021-0.04391-0.98174-0.88461
   5  -1  -7 2870.53  178.78   1-0.00001 0.38599 0.18489-0.16872-0.98275-0.90693
  -5  -1   7 2732.18  169.22   1 0.00010-0.46451-0.82776-0.59285-0.56107-0.65784
  -5   1  -7 3018.39  204.10   1 0.00009 0.15224-0.99201-0.91454 0.12616-0.37474
  -5  -1  -7 2830.66  193.38   1 0.00008 0.07396-0.93908-0.98113 0.34369-0.17863
  -5   1   7 2582.78  193.20   1-0.00001-0.38633-0.18401 0.16929 0.98292 0.90668
  -5  -1   7 2415.86  180.40   1-0.00001-0.46441-0.18826 0.04556 0.98211 0.88444
  -5   1   7 3087.46  240.14   1-0.40792-0.79466-0.71988-0.36614 0.56157 0.48418
   5   1  -7 3107.37  199.22   1-0.57449-0.10963-0.21083-0.44468 0.79089 0.88895
   5  -1  -7 2973.21  192.60   1-0.58624-0.19957-0.07036-0.42332 0.80707 0.88372
  -5  -1  -7 2494.09  166.18   1-0.12485-0.05221 0.97717 0.93511 0.17188-0.35048
   5  -1   7 2927.44  196.16   1 0.07497-0.07561 0.99182 0.91426-0.10321 0.39800
   5   1   7 2902.93  191.12   1-0.16246-0.23518 0.91672 0.95913-0.36499 0.15734
   5  -1  -8 8128.59  308.33   1 0.00008 0.42574 0.53355 0.16022 0.84576 0.89054
   5  -1   8 8224.96  356.20   1 0.00009-0.18941 0.98068 0.92274-0.19559 0.33565
   5  -1  -8 8571.62  324.37   1 0.00000 0.42438 0.31508-0.05824-0.94906-0.90360
  -5  -1   8 8175.94  319.26   1 0.00009-0.50294-0.79165-0.53694-0.61097-0.67730
  -5   1  -8 8192.32  340.41   1 0.00009 0.19069-0.98051-0.92278 0.19645-0.33481
  -5  -1  -8 8493.91  342.83   1 0.00007 0.11286-0.91914-0.98088 0.39392-0.15849
  -5   1   8 6889.85  312.08   1 0.00000-0.42479-0.31436 0.05865 0.94930 0.90338
  -5   1   8 8467.49  422.80   1-0.36486-0.79012-0.78394-0.41048 0.50230 0.45520
   5   1  -8 8337.12  333.77   1-0.56457-0.06127-0.27776-0.53129 0.77724 0.84496
   5  -1  -8 8580.48  348.65   1-0.58252-0.15730-0.13245-0.50556 0.80194 0.84832
   5   1   8 7833.43  327.86   1-0.19083-0.30191 0.88303 0.94523-0.42874 0.12401
   5  -1  -9 5156.35  244.59   1 0.00007 0.46446 0.50336 0.11069 0.86407 0.87864
   5  -1   9 5168.21  270.38   1 0.00008-0.22779 0.96490 0.92666-0.26260 0.29900
   5   1   9 4826.53  257.36   1 0.00007-0.14963 0.89723 0.97858-0.44156 0.14134
  -5  -1   9 5211.72  250.98   1 0.00009-0.54136-0.75865-0.48414-0.65149-0.68740
  -5   1  -9 5203.19  275.63   1 0.00008 0.22914-0.96462-0.92663 0.26361-0.29804
  -5  -1  -9 5321.34  291.74   1 0.00007 0.15134-0.89697-0.97842 0.44208-0.14064
  -5  -1   9 4394.99  248.08   1 0.00002-0.54132-0.56335-0.29010 0.82621 0.78917
  -5   1   9 5394.27  321.68   1-0.32450-0.78816-0.83374-0.44049 0.44673 0.42983
   5   1  -9 5181.90  273.27   1-0.55637-0.01463-0.32211-0.59533 0.76595 0.80334
   5  -1  -9 5343.74  269.22   1-0.57814-0.11449-0.17956-0.57236 0.79592 0.81196
   5  -1   9 4997.72  276.29   1-0.14452-0.37243 0.93471 0.89721-0.32469 0.23727
   5   1   9 4746.51  252.07   1-0.21857-0.36801 0.84326 0.92524-0.49105 0.09213
   5  -1  10 3325.70  221.30   1 0.00008-0.26617 0.94518 0.92665-0.32652 0.26545
   5   1  10 3633.81  222.04   1 0.00007-0.18801 0.87303 0.97410-0.48765 0.12560
  -5  -1  10 3447.67  194.37   1 0.00009-0.57979-0.73102-0.43671-0.68235-0.68783
  -5   1 -10 3738.82  228.63   1 0.00008 0.26759-0.94480-0.92654 0.32764-0.26437
  -5  -1 -10 3444.52  211.62   1 0.00007 0.18981-0.87269-0.97385 0.48826-0.12479
  -5   1  10 2968.59  200.97   1 0.00002-0.50173-0.54165-0.12923 0.84060 0.85531
  -5  -1 -10 3091.99  227.06   1-0.28929-0.09925-0.87045-0.97146 0.39826-0.21540
   5   1 -10 3728.36  211.15   1-0.55036 0.02981-0.35075-0.64366 0.75767 0.76472
   5  -1 -10 3342.51  201.20   1-0.57407-0.07197-0.21410-0.62658 0.79031 0.77602
   5  -1  10 3221.81  210.00   1-0.18341-0.44968 0.89250 0.87479-0.41206 0.18033
   5   1  10 3525.28  220.80   1-0.24558-0.43318 0.79703 0.89920-0.55174 0.06153
   5  -1  11 1784.20  172.06   1 0.00007-0.30455 0.92190 0.92307-0.38741 0.23492
   5   1  11 1787.60  165.71   1 0.00006-0.22639 0.84682 0.96760-0.53186 0.11175
  -5   1 -11 1934.40  172.58   1 0.00007 0.30638-0.92144-0.92284 0.38850-0.23342
  -5  -1 -11 1823.92  159.22   1 0.00006 0.22829-0.84639-0.96726 0.53254-0.11081
  -5  -1 -11 1637.28  175.81   1-0.30810-0.07955-0.85156-0.97229 0.42416-0.21978
   5  -1 -11 1744.06  144.54   1-0.57073-0.03019-0.23856-0.67072 0.78571 0.74108
   5  -1  11 1688.05  147.38   1-0.22116-0.52579 0.83915 0.84123-0.49689 0.12593
   5   1  11 1826.23  166.35   1-0.27126-0.49719 0.74498 0.86696-0.60944 0.03427
   5  -1  12 4274.66  220.75   1 0.00007-0.34301 0.89525 0.91621-0.44555 0.20710
   5   1  12 4719.48  227.82   1 0.00006-0.26477 0.81865 0.95914-0.57428 0.09969
  -5   1 -12 5077.75  235.13   1 0.00007 0.34485-0.89474-0.91584 0.44657-0.20566
  -5  -1 -12 4646.34  228.14   1 0.00006 0.26676-0.81812-0.95870 0.57503-0.09864
  -5  -1 -12 4015.33  232.14   1-0.32602-0.05896-0.83202-0.97248 0.44883-0.22539
   5  -1 -12 4454.67  206.80   1-0.56828 0.01069-0.25489-0.70674 0.78235 0.70738
   5  -1  12 4260.40  216.95   1-0.25751-0.60028 0.77392 0.79631-0.57855 0.07444
   5   1  12 4749.61  219.60   1-0.29558-0.55984 0.68673 0.82853-0.66409 0.01004
   5  -1  13 2791.05  213.94   1 0.00007-0.38139 0.86559 0.90626-0.50074 0.18227
   5   1  13 2761.74  213.48   1 0.00005-0.30314 0.78854 0.94874-0.61497 0.08936
  -5   1 -13 2914.34  218.44   1 0.00006 0.38333-0.86495-0.90576 0.50185-0.18070
  -5  -1 -13 2983.23  213.90   1 0.00005 0.30523-0.78789-0.94818 0.61580-0.08820
  -5  -1 -13 2559.41  221.79   1-0.34325-0.03787-0.81170-0.97196 0.47255-0.23206
   5  -1 -13 2847.00  194.82   1-0.56675 0.05066-0.26459-0.73612 0.78024 0.67494
   5   1  13 2707.07  191.89   1-0.31834-0.62093 0.62217 0.78378-0.71522-0.01065
   5  -1  14 1078.22  154.70   1 0.00006-0.41976 0.83301 0.89339-0.55325 0.16012
   5   1  14 1133.55  153.45   1 0.00005-0.34147 0.75650 0.93641-0.65398 0.08079
  -5   1 -14 1233.41  152.17   1 0.00006 0.42180-0.83222-0.89273 0.55444-0.15843
  -5  -1 -14 1088.27  156.90   1 0.00005 0.34370-0.75572-0.93571 0.65489-0.07942
  -5  -1 -14  928.11  155.96   1-0.35975-0.01586-0.79075-0.97073 0.49526-0.23964
  -5   3   016757.92  619.30   1 0.00007-0.03991 0.43991 0.77497 0.89803 0.63073
   5  -3   016129.89  596.67   1 0.00009 0.03962 0.77778 0.44270 0.62853 0.89579
  -5  -3   016647.08  614.30   1 0.00010-0.27363 0.97772 0.95413 0.20990-0.12145
   5   3   015951.29  594.67   1 0.00008 0.27403 0.93806 0.96159-0.34646-0.01551
  -5   3   016079.79  590.22   1 0.00009-0.03866-0.77744-0.44220-0.62895-0.89607
   5   3   015396.11  570.85   1 0.00010 0.27395-0.97747-0.95422-0.21106 0.12002
  -5  -3   016089.56  623.12   1 0.00008-0.27348-0.93837-0.96176 0.34561 0.01447
  -5  -3   015174.03  641.19   1-0.55059-0.82430-0.34967-0.37299 0.75800 0.42591
  -5   3   013972.55  594.86   1-0.56469-0.60481 0.27702 0.61185 0.77741 0.50974
   5  -3   017589.28  697.89   1-0.42397-0.38380 0.69249 0.35766 0.58368 0.85133
  -5  -3   015223.00  606.20   1-0.41744-0.69159 0.70390 0.67998 0.57468 0.24356
   5   3   015045.67  559.28   1-0.11305 0.16128 0.96057 0.98392-0.25398 0.07661
  -5   3  -115104.50  574.80   1 0.00007-0.00142 0.51249 0.82785 0.85869 0.56094
   5  -3  -114176.58  543.41   1 0.00009 0.07843 0.72479 0.36992 0.68896 0.92574
   5  -3   114269.84  543.59   1 0.00010 0.00119 0.82774 0.51237 0.56110 0.85876
  -5  -3   115356.83  575.64   1 0.00010-0.31207 0.95395 0.95005 0.29995-0.00104
  -5  -3  -114946.39  576.89   1 0.00010-0.23535 0.98999 0.94655 0.14107-0.22054
   5   3  -114219.70  535.75   1 0.00008 0.31241 0.94581 0.94963-0.32471-0.02413
   5   3   114018.02  540.78   1 0.00008 0.23566 0.92855 0.97178-0.37120-0.00988
  -5   3  -114071.17  528.01   1 0.00010-0.00024-0.82758-0.51214-0.56134-0.85889
   5   3  -113208.57  493.83   1 0.00010 0.31261-0.95324-0.94987-0.30218-0.00161
   5   3   113746.48  502.53   1 0.00010 0.23552-0.98983-0.94681-0.14222 0.21926
  -5  -3   114739.60  579.14   1 0.00008-0.31193-0.94617-0.94982 0.32365 0.02288
  -5  -3  -114417.79  567.53   1 0.00008-0.23455-0.92879-0.97206 0.37059 0.00895
  -5   3   112884.79  579.90   1-0.58172-0.65999 0.14226 0.49683 0.80084 0.56352
   5  -3  -115763.96  622.59   1-0.47201-0.39346 0.59577 0.24127 0.64981 0.88711
   5  -3   115011.62  598.63   1-0.36954-0.36774 0.77756 0.46243 0.50875 0.80679
  -5  -3  -114095.32  538.66   1-0.20211-0.43776 0.93900 0.89522 0.27824-0.08326
   5   3   113215.98  509.19   1-0.12878 0.10718 0.94852 0.99164-0.28932 0.07171
  -5   3   2 1369.80  127.90   1 0.00005-0.11689 0.26863 0.64307 0.96324 0.75682
  -5   3  -2 1504.73  132.65   1 0.00008 0.03710 0.57536 0.87108 0.81789 0.48972
   5  -3  -2 1265.17  113.45   1 0.00009 0.11689 0.67081 0.29623 0.74162 0.94793
   5  -3   2 1275.00  132.25   1 0.00010-0.03722 0.87310 0.57744 0.48752 0.81557
  -5  -3   2 1347.08  128.54   1 0.00010-0.35050 0.90944 0.92523 0.41583 0.14517
  -5  -3  -2 1315.87  121.97   1 0.00010-0.19693 0.99592 0.93280 0.09014-0.30182
   5   3  -2 1426.71  124.99   1 0.00008 0.35078 0.95159 0.93571-0.30736-0.03714
   5   3   2 1424.04  126.11   1 0.00007 0.19728 0.91739 0.98032-0.39798-0.00630
  -5   3  -2 1370.02  134.87   1 0.00010 0.03811-0.87301-0.57734-0.48768-0.81560
   5   3  -2 1345.90  115.33   1 0.00010 0.35103-0.90805-0.92447-0.41884-0.14870
   5   3   2 1445.08  117.09   1 0.00010 0.19709-0.99585-0.93305-0.09095 0.30092
  -5  -3   2 1322.97  133.25   1 0.00008-0.35039-0.95200-0.93592 0.30606 0.03566
  -5  -3  -2 1312.86  134.55   1 0.00007-0.19608-0.91759-0.98057 0.39751 0.00555
  -5  -3  -2 1105.45  140.56   1-0.41478-0.61110-0.70843-0.77124 0.57103 0.17814
  -5   3   2 1288.41  164.61   1-0.58770-0.70437 0.00175 0.37598 0.80907 0.60207
   5  -3  -2 1334.62  141.51   1-0.51156-0.39464 0.49224 0.11809 0.70426 0.91121
  -5   3  -2 1118.10  141.12   1-0.50698-0.47040 0.50580 0.80132 0.69795 0.36959
   5  -3   2 1277.07  137.97   1-0.31162-0.34821 0.84784 0.55236 0.42901 0.75739
  -5  -3  -2 1168.92  107.31   1-0.10468-0.30195 0.98400 0.92057 0.14411-0.24772
   5   3   2 1312.67  122.33   1-0.14565 0.05188 0.93364 0.99658-0.32723 0.06417
  -5   3   315232.20  590.37   1 0.00004-0.15535 0.17325 0.56730 0.98487 0.80871
  -5   3  -316715.53  635.15   1 0.00008 0.07556 0.62889 0.90490 0.77748 0.41885
   5  -3  -316218.74  597.97   1 0.00008 0.15534 0.61768 0.22339 0.78642 0.96227
  -5  -3   317945.78  689.89   1 0.00010-0.38913 0.82759 0.86331 0.56133 0.32134
  -5  -3  -316782.16  640.60   1 0.00010-0.15852 0.99858 0.91577 0.05321-0.36910
   5   3  -315592.62  593.79   1 0.00008 0.38916 0.95499 0.91941-0.29662-0.05677
   5   3   315212.97  588.47   1 0.00007 0.15886 0.90467 0.98729-0.42610-0.00404
   5   3  -315351.28  583.45   1 0.00010 0.38944-0.82595-0.86219-0.56373-0.32395
  -5   3  -315587.00  605.80   1 0.00010 0.07653-0.91254-0.63666-0.40898-0.76733
   5   3   315981.94  597.16   1 0.00010 0.15866-0.99855-0.91598-0.05376 0.36851
  -5  -3   315862.35  687.49   1 0.00008-0.38884-0.95548-0.91965 0.29504 0.05501
  -5  -3  -316454.14  638.90   1 0.00007-0.15760-0.90481-0.98749 0.42580 0.00352
  -5  -3  -315826.96  654.50   1-0.39268-0.55049-0.74400-0.82654 0.54060 0.11743
  -5   3   314970.37  666.73   1-0.58218-0.73710-0.13673 0.25753 0.80148 0.62477
   5  -3  -317137.91  682.68   1-0.54164-0.38640 0.38805-0.00575 0.74567 0.92231
   5  -3   316912.45  674.45   1-0.25279-0.32778 0.90276 0.62695 0.34801 0.70674
  -5  -3  -315281.86  587.65   1-0.05314-0.21202 0.99590 0.91281 0.07316-0.34901
   5   3   315115.97  578.91   1-0.16336-0.00417 0.91575 0.99848-0.36701 0.05482
  -5   3   412037.18  480.24   1 0.00003-0.19385 0.07330 0.48706 0.99730 0.85157
   5  -3  -412049.64  465.08   1 0.00008 0.19379 0.56711 0.15310 0.82364 0.96902
  -5   3  -413700.00  529.90   1 0.00009 0.11403 0.67343 0.92973 0.73924 0.35014
  -5  -3   413093.89  534.56   1 0.00009-0.42799 0.68278 0.73816 0.73062 0.52147
  -5  -3  -412203.01  475.88   1 0.00010-0.12010 0.99962 0.89712 0.02753-0.42513
   5   3  -412369.81  505.53   1 0.00008 0.42753 0.95509 0.89982-0.29629-0.08680
   5   3   412364.79  485.87   1 0.00007 0.12048 0.89038 0.99271-0.45521-0.00279
   5   3  -412605.88  494.11   1 0.00009 0.42785-0.68137-0.73747-0.73193-0.52257
   5  -3   412745.10  515.19   1 0.00009-0.11489-0.67351-0.92954-0.73917-0.35034
  -5   3  -412496.23  520.49   1 0.00010 0.11495-0.94509-0.68900-0.32679-0.71558
   5   3   413069.10  506.13   1 0.00010 0.12023-0.99961-0.89726-0.02787 0.42480
  -5  -3   412266.97  524.95   1 0.00008-0.42729-0.95569-0.90013 0.29434 0.08469
  -5  -3  -411700.61  515.04   1-0.38194-0.50124-0.76001-0.86227 0.52582 0.07236
  -5   3   412558.22  591.35   1-0.56638-0.75975-0.26689 0.14706 0.77973 0.63336
   5  -3  -412751.95  540.26   1-0.56270-0.36908 0.28852-0.12494 0.77467 0.92096
  -5   3  -410744.81  453.18   1-0.43933-0.32601 0.66420 0.92041 0.60482 0.21576
   5  -3   412755.50  537.84   1-0.19521-0.30859 0.94322 0.68706 0.26874 0.65780
  -5  -3  -411235.25  451.77   1-0.02442-0.14490 0.99913 0.89639 0.03362-0.41889
  -5   3   510344.61  457.39   1 0.00002-0.23236-0.02844 0.40502 0.99959 0.88428
  -5  -3   512369.72  523.09   1 0.00007-0.46645 0.44130 0.51591 0.89735 0.71850
   5  -3  -510852.17  424.65   1 0.00007 0.23225 0.52050 0.08677 0.85386 0.96877
  -5   3  -511483.14  449.42   1 0.00009 0.15248 0.70978 0.94636 0.70441 0.28484
   5  -3   510510.81  436.55   1 0.00010-0.15270 0.96988 0.73323 0.24357 0.66260
   5   3  -511312.18  453.29   1 0.00008 0.46590 0.94951 0.87453-0.31372-0.13460
   5   3   511241.08  454.67   1 0.00007 0.08211 0.87458 0.99662-0.48487-0.00210
   5  -3   511632.60  455.15   1 0.00009-0.15326-0.70997-0.94620-0.70423-0.28497
  -5   3  -510954.09  453.52   1 0.00010 0.15337-0.97013-0.73383-0.24257-0.66178
  -5  -3  -510811.50  478.89   1-0.37788-0.45866-0.76587-0.88785 0.52023 0.03647
  -5   3   511456.61  561.83   1-0.54261-0.77430-0.38410 0.04982 0.74701 0.63084
   5   3  -511547.22  445.32   1-0.58766-0.12180-0.01150-0.08600 0.80902 0.98882
   5  -3  -511519.08  583.23   1-0.57603-0.34415 0.19830-0.23490 0.79301 0.90905
   5   3  -511885.09  454.06   1-0.28649 0.17949 0.87312 0.79900 0.39441 0.57391
   5  -3   511594.88  480.24   1-0.14022-0.29199 0.97111 0.73461 0.19304 0.61244
  -5  -3  -510228.55  403.83   1-0.00867-0.09077 0.99989 0.87750 0.01194-0.47090
  -5  -3   6  463.10   94.78   1 0.00003-0.50494 0.05688 0.15110 0.99838 0.84982
   5  -3  -6  453.46   77.31   1 0.00007 0.27097 0.47941 0.02619 0.87758 0.96223
   5  -3   6  451.56  102.86   1 0.00010-0.19114 0.98728 0.77033 0.15893 0.60832
   5   3   6  545.24  101.24   1 0.00006 0.04373 0.85729 0.99904-0.51483-0.00169
   5  -3  -6  512.30   87.00   1-0.00001 0.26936 0.12901-0.32436-0.99164-0.90676
  -5   3  -6  510.61  104.10   1 0.00010 0.19205-0.98741-0.77077-0.15815-0.60746
  -5  -3  -6  489.72  104.54   1 0.00006-0.04218-0.85730-0.99910 0.51480 0.00157
  -5   3   6  476.11   90.03   1-0.00001-0.26978-0.12855 0.32452 0.99170 0.90658
  -5  -3  -6  456.60  109.34   1-0.37804-0.42031-0.76564-0.90735 0.52044 0.00640
  -5   3   6  519.69  146.85   1-0.51318-0.78335-0.48734-0.03370 0.70649 0.62066
   5   3  -6  538.98   83.62   1-0.56547-0.06098-0.27237-0.36696 0.77848 0.92823
   5  -3  -6  483.50  103.27   1-0.58352-0.31325 0.11900-0.33386 0.80332 0.88904
   5  -3   6  511.99  112.51   1-0.08853-0.27869 0.98858 0.77173 0.12189 0.57162
  -5  -3  -6  432.15   81.96   1-0.00102-0.04473 0.99999 0.85795 0.00141-0.51177
   5   3   6  523.59   98.64   1-0.21922-0.17511 0.84223 0.98433-0.49252 0.02059
   5  -3  -710652.53  372.69   1 0.00007 0.30945 0.44352-0.02938 0.89626 0.95046
   5  -3   710521.68  403.60   1 0.00010-0.22958 0.99716 0.79967 0.07522 0.55481
   5   3   710969.61  412.38   1 0.00006 0.00535 0.83852 0.99998-0.54486-0.00136
   5  -3  -711186.24  396.73   1-0.00000 0.30774 0.22758-0.24551-0.97375-0.91924
  -5   3  -710828.60  413.03   1 0.00010 0.23048-0.99728-0.80041-0.07364-0.55335
  -5  -3   711708.21  440.25   1 0.00006-0.54244-0.83955-0.72516 0.54327 0.42414
  -5  -3  -711706.18  444.06   1 0.00006-0.00370-0.83848-0.99999 0.54492 0.00138
  -5  -3   7 9838.75  384.95   1 0.00002-0.54249-0.50986-0.39550 0.86025 0.74113
  -5   3   7 9643.47  398.47   1-0.00000-0.30825-0.22718 0.24559 0.97385 0.91905
  -5  -3  -710990.76  456.74   1-0.38102-0.38478-0.76136-0.92279 0.52454-0.01978
   5  -3  -711547.94  437.17   1-0.58691-0.27824 0.05166-0.42086 0.80799 0.86339
   5  -3   711501.68  442.29   1-0.04040-0.26895 0.99763 0.80043 0.05562 0.53569
  -5  -3  -7 9971.91  357.51   1 0.00121-0.00410 0.99999 0.83830-0.00167-0.54519
   5   3   710672.59  404.83   1-0.23806-0.23231 0.81071 0.97260-0.53485 0.00869
   5  -3  -810099.06  397.10   1 0.00007 0.34793 0.41365-0.07895 0.91043 0.93418
   5  -3   810092.73  443.25   1 0.00009-0.26800 0.99997 0.82216-0.00771 0.50222
   5   3   810973.13  481.90   1 0.00006-0.03301 0.81828 0.99945-0.57481-0.00095
  -5   3  -810656.20  448.91   1 0.00009 0.26891-0.99995-0.82286 0.00952-0.50058
  -5  -3  -810990.77  460.81   1 0.00006 0.03476-0.81817-0.99939 0.57496 0.00110
  -5  -3  -810347.87  478.70   1-0.38594-0.35120-0.75414-0.93529 0.53132-0.04328
   5  -3  -810682.41  450.76   1-0.58769-0.24062-0.00409-0.49628 0.80907 0.83415
   5  -3   811040.18  467.84   1 0.00422-0.26270 0.99997 0.82242-0.00582 0.50457
   5   3   810129.87  443.56   1-0.25683-0.28926 0.77530 0.95724-0.57701-0.00345
   5  -3  -9 9457.72  291.10   1 0.00006 0.38642 0.38991-0.12239 0.92085 0.91416
   5  -3   9 9239.39  348.75   1 0.00009-0.30642 0.99606 0.83793-0.08865 0.45162
  -5   3  -9 8720.69  317.90   1 0.00009 0.30743-0.99592-0.83842 0.09018-0.45004
  -5  -3  -910356.48  346.44   1 0.00005 0.07324-0.79639-0.99731 0.60478 0.00060
  -5  -3  -9 9442.56  387.00   1-0.39226-0.31900-0.74465-0.94552 0.54002-0.06488
   5  -3  -9 9665.74  339.90   1-0.58698-0.20151-0.04924-0.56108 0.80809 0.80285
   5  -3   910480.88  380.63   1 0.04558-0.25973 0.99698 0.83909-0.06275 0.47797
   5   3   9 8519.26  326.77   1-0.27510-0.34586 0.73642 0.93817-0.61806-0.01406
   5  -3 -10  518.15   85.56   1 0.00006 0.42490 0.37219-0.15980 0.92815 0.89102
   5  -3  10  493.60  119.13   1 0.00009-0.34440 0.98588 0.84780-0.16741 0.40325
  -5   3 -10  601.22  115.04   1 0.00009 0.34588-0.98565-0.84788 0.16878-0.40181
  -5  -3 -10  570.60  121.27   1 0.00005 0.11171-0.77309-0.99374 0.63428-0.00020
  -5  -3 -10  477.13  131.08   1-0.39958-0.28781-0.73329-0.95389 0.55010-0.08509
   5  -3 -10  502.66  106.22   1-0.58557-0.16170-0.08497-0.61647 0.80615 0.77058
   5  -3  10  558.86  125.04   1 0.08395-0.25975 0.98974 0.85150-0.11558 0.45549
   5   3  10  577.87  115.01   1-0.29285-0.40194 0.69379 0.91536-0.65794-0.02352
   5  -3 -11 5550.31  309.25   1 0.00006 0.46338 0.36033-0.19135 0.93282 0.86524
   5  -3  11 5634.80  356.43   1 0.00008-0.38277 0.97002 0.85164-0.24301 0.35802
   5   3  11 5794.15  352.24   1 0.00005-0.14810 0.74873 0.98896-0.66287 0.00212
  -5   3 -11 6211.48  375.12   1 0.00008 0.38433-0.96964-0.85161 0.24453-0.35643
  -5  -3 -11 5909.18  354.97   1 0.00005 0.15019-0.74830-0.98865 0.66335-0.00145
  -5  -3 -11 5401.04  365.03   1-0.40763-0.25736-0.72034-0.96067 0.56119-0.10429
   5  -3 -11 5580.18  338.96   1-0.58400-0.12154-0.11201-0.66375 0.80398 0.73800
   5  -3  11 5402.02  336.16   1-0.15804-0.54114 0.92137 0.80397-0.35508 0.24653
   5   3  11 5508.57  376.70   1-0.30994-0.45736 0.64733 0.88872-0.69634-0.03149
   5  -3  12 5932.98  260.19   1 0.00008-0.42115 0.94890 0.85022-0.31557 0.31582
   5   3  12 5932.80  250.15   1 0.00004-0.18647 0.72249 0.98245-0.69137 0.00398
  -5   3 -12 6093.20  270.39   1 0.00008 0.42277-0.94834-0.85005 0.31724-0.31410
  -5  -3 -12 6263.97  255.66   1 0.00004 0.18866-0.72198-0.98203 0.69191-0.00321
  -5  -3 -12 5774.45  321.65   1-0.41623-0.22744-0.70597-0.96602 0.57301-0.12275
   5  -3 -12 5881.23  244.76   1-0.58252-0.08162-0.13242-0.70385 0.80195 0.70563
   5   3  12 5616.18  250.89   1-0.32623-0.51198 0.59696 0.85816-0.73293-0.03766
   5  -3  13 5329.38  373.55   1 0.00007-0.45953 0.92291 0.84393-0.38500 0.27675
   5   3  13 4712.25  340.42   1 0.00004-0.22485 0.69470 0.97437-0.71929 0.00643
  -5  -3 -13 5555.82  404.13   1 0.00004 0.22714-0.69408-0.97384 0.71989-0.00554
  -5  -3 -13 5167.47  401.34   1-0.42521-0.19791-0.69029-0.97007 0.58538-0.14067
   5  -3 -13 5394.26  369.90   1-0.58134-0.04199-0.14672-0.73783 0.80032 0.67367
   5   3  13 4442.82  317.27   1-0.34158-0.56566 0.54256 0.82358-0.76742-0.04172
   5  -3  14  309.24  116.34   1 0.00007-0.49801 0.89227 0.83313-0.45149 0.24057
   5   3  14  311.88  121.58   1 0.00004-0.26322 0.66529 0.96468-0.74657 0.00951
  -5  -3 -14  308.10  116.42   1 0.00004 0.26561-0.66457-0.96403 0.74722-0.00853
  -5  -3 -14  305.91  122.10   1-0.43447-0.16866-0.67339-0.97289 0.59813-0.15821
   5  -3 -14  293.79  109.58   1-0.58053-0.00274-0.15571-0.76651 0.79921 0.64222
   5   3  14  318.11   99.00   1-0.35585-0.61825 0.48394 0.78478-0.79947-0.04334
   5  -5   0 4989.47  261.34   1 0.00009-0.03814 0.68805 0.23336 0.72565 0.97164
  -5  -5   0 4955.19  248.55   1 0.00009-0.35198 0.99967 0.85623-0.02546-0.37810
   5   5   0 5288.38  276.11   1 0.00005 0.35223 0.73423 0.87707-0.67889-0.32659
  -5   5   0 4929.96  259.02   1 0.00009 0.03981-0.68790-0.23319-0.72580-0.97161
   5   5   0 5190.00  252.85   1 0.00009 0.35236-0.99972-0.85696 0.02364 0.37611
  -5  -5   0 5242.34  285.31   1 0.00005-0.35114-0.73489-0.87795 0.67818 0.32542
  -5  -5   0 4258.56  296.57   1-0.52482-0.87691 0.45003 0.30654 0.72251 0.37019
   5  -5   0 5478.72  316.77   1-0.44076-0.47858 0.66146 0.20704 0.60679 0.85328
  -5  -5   0 4839.33  236.93   1 0.06422-0.28777 0.99400 0.85024-0.08842-0.44075
   5   5   0 4885.35  255.83   1-0.22214 0.13058 0.83758 0.98043-0.49909-0.14732
   5  -5  -1  453.33   90.46   1 0.00008 0.00031 0.63653 0.16212 0.77125 0.98677
  -5  -5   1  496.14   83.95   1 0.00010-0.39040 0.99929 0.87553 0.03764-0.28464
  -5  -5  -1  457.60   77.54   1 0.00009-0.31357 0.99752 0.83440-0.07026-0.45325
   5   5   1  380.12   86.05   1 0.00005 0.31386 0.74239 0.90495-0.66996-0.28729
   5   5  -1  376.06   84.84   1 0.00004 0.39060 0.71797 0.84110-0.69607-0.37413
  -5   5  -1  340.77   87.69   1 0.00009 0.07818-0.73967-0.30477-0.67296-0.94920
   5   5  -1  372.67   71.63   1 0.00010 0.39079-0.99919-0.87621-0.04005 0.28202
   5   5   1  359.29   68.86   1 0.00009 0.31392-0.99762-0.83509 0.06887 0.45174
  -5  -5  -1  499.05   99.63   1 0.00005-0.31266-0.74292-0.90569 0.66937 0.28629
  -5  -5   1  472.26   91.76   1 0.00004-0.38962-0.71881-0.84216 0.69520 0.37276
   5  -5  -1  533.23  131.34   1-0.47667-0.47611 0.58494 0.11086 0.65622 0.87236
   5  -5   1  518.43  123.82   1-0.39986-0.47602 0.73284 0.29808 0.55049 0.82737
   5   5  -1  342.69   88.29   1-0.21562 0.17545 0.84782 0.97087-0.48445-0.16311
   5   5   1  335.94   92.00   1-0.22999 0.08437 0.82467 0.98731-0.51672-0.13453
   5  -5  -2 5476.18  274.22   1 0.00008 0.03876 0.58655 0.09243 0.80991 0.99496
  -5  -5   2 5803.73  281.31   1 0.00010-0.42882 0.99205 0.88798 0.12581-0.16613
  -5  -5  -2 5499.86  266.93   1 0.00009-0.27515 0.99485 0.81204-0.10130-0.51465
   5   5   2 5939.16  299.83   1 0.00005 0.27549 0.74478 0.92706-0.66730-0.25427
   5   5  -2 5848.53  288.74   1 0.00004 0.42897 0.68954 0.79295-0.72424-0.43267
  -5   5  -2 5480.62  280.92   1 0.00009 0.11661-0.79008-0.37498-0.61299-0.91966
   5   5  -2 5993.89  280.25   1 0.00010 0.42922-0.99164-0.88843-0.12901 0.16266
   5   5   2 5813.32  270.82   1 0.00009 0.27503-0.99492-0.81254 0.10062 0.51393
  -5  -5  -2 5755.35  303.52   1 0.00005-0.27418-0.74521-0.92768 0.66682 0.25343
  -5  -5   2 5820.08  303.94   1 0.00004-0.42810-0.69065-0.79429 0.72318 0.43105
  -5  -5  -2 5159.12  314.16   1-0.57937-0.85441-0.16774-0.35021 0.79761 0.38383
   5  -5  -2 6010.45  332.52   1-0.50691-0.46798 0.50599 0.01225 0.69786 0.88365
   5  -5   2 5933.78  339.63   1-0.35509-0.46963 0.79682 0.38170 0.48885 0.79607
   5   5  -2 5706.00  294.66   1-0.21068 0.21876 0.85530 0.95857-0.47334-0.18243
   5   5   2 5517.66  284.83   1-0.23901 0.03703 0.80902 0.99148-0.53698-0.12484
   5  -5  -3  681.27   93.04   1 0.00008 0.07721 0.53932 0.02548 0.84209 0.99668
   5  -5   3  657.20  113.37   1 0.00010-0.15379 0.83737 0.44193 0.54662 0.88376
  -5  -5   3  779.00  105.68   1 0.00010-0.46707 0.96822 0.88414 0.25009-0.01156
   5   5   3  585.55  101.54   1 0.00005 0.23712 0.74280 0.94479-0.66950-0.22611
   5   5  -3  574.29   87.52   1 0.00003 0.46733 0.64106 0.72475-0.76748-0.50627
  -5   5  -3  540.94  105.95   1 0.00010 0.15504-0.83761-0.44231-0.54626-0.88335
  -5  -5  -3  717.20  113.73   1 0.00005-0.23571-0.74314-0.94531 0.66913 0.22542
  -5  -5   3  710.91  110.98   1 0.00003-0.46659-0.64263-0.72657 0.76617 0.50436
  -5  -5  -3  643.33  128.96   1-0.55894-0.79554-0.30895-0.51110 0.76949 0.32538
   5  -5  -3  719.02  129.02   1-0.53126-0.45401 0.42759-0.08578 0.73138 0.88685
   5  -5   3  684.32  140.00   1-0.30772-0.46065 0.85196 0.45650 0.42363 0.76118
   5   5  -3  558.19  101.97   1-0.20760 0.26020 0.85986 0.94333-0.46640-0.20592
   5   5   3  533.52   96.71   1-0.24886-0.01114 0.79084 0.99312-0.55912-0.11656
   5  -5  -4 5983.97  330.21   1 0.00007 0.11596 0.49608-0.03738 0.86827 0.99254
   5  -5   4 5650.58  330.34   1 0.00010-0.19222 0.88050 0.50476 0.47404 0.84158
  -5  -5   4 6562.23  368.76   1 0.00010-0.50569 0.90412 0.84006 0.42726 0.19637
   5   5   4 6833.91  382.15   1 0.00005 0.19875 0.73734 0.95905-0.67551-0.20175
  -5   5  -4 6583.67  366.51   1 0.00010 0.19337-0.88073-0.50518-0.47360-0.84107
  -5  -5  -4 6280.02  359.52   1 0.00005-0.19723-0.73760-0.95948 0.67523 0.20120
  -5  -5   4 6245.21  357.95   1 0.00002-0.50508-0.55730-0.62154 0.83030 0.59881
  -5  -5  -4 5785.95  368.07   1-0.53870-0.73663-0.39972-0.62144 0.74163 0.26679
   5  -5  -4 6334.09  374.29   1-0.55004-0.43441 0.35219-0.18085 0.75723 0.88236
   5  -5   4 6273.17  389.82   1-0.25899-0.45033 0.89765 0.52186 0.35655 0.72446
   5   5  -4 6569.29  358.58   1-0.20668 0.29948 0.86120 0.92488-0.46434-0.23428
   5   5   4 6242.25  352.30   1-0.25943-0.06004 0.77004 0.99213-0.58286-0.10987
   5  -5  -5  354.99   76.12   1 0.00007 0.15444 0.45697-0.09618 0.88947 0.98330
  -5  -5   5  429.91   98.21   1 0.00009-0.54457 0.72903 0.68459 0.68447 0.48453
   5  -5   5  339.59   98.74   1 0.00010-0.23083 0.91789 0.56167 0.39682 0.79450
   5   5   5  248.08   85.65   1 0.00005 0.16038 0.72900 0.97043-0.68450-0.18038
  -5   5  -5  229.60   85.26   1 0.00010 0.23179-0.91840-0.56263-0.39564-0.79354
  -5  -5  -5  371.45   99.49   1 0.00005-0.15875-0.72919-0.97077 0.68431 0.17996
  -5  -5  -5  441.31  119.52   1-0.52243-0.68188-0.45800-0.69943 0.71923 0.21407
   5  -5  -5  387.68  111.63   1-0.56385-0.40985 0.28194-0.27076 0.77625 0.87103
   5  -5   5  432.80  132.29   1-0.21014-0.43986 0.93388 0.57775 0.28929 0.68754
   5   5  -5  251.37   87.62   1-0.20829 0.33623 0.85884 0.90274-0.46797-0.26834
   5   5   5  204.32   86.49   1-0.27052-0.10946 0.74659 0.98849-0.60779-0.10437
   5  -5  -6 6678.52  297.79   1 0.00007 0.19292 0.42270-0.15015 0.90626 0.96965
   5  -5   6 6268.35  316.07   1 0.00010-0.26926 0.94904 0.61251 0.31515 0.74318
   5   5   6 6970.07  322.59   1 0.00004 0.12200 0.71818 0.97932-0.69585-0.16136
  -5   5  -6 6454.46  304.17   1 0.00010 0.27022-0.94954-0.61356-0.31364-0.74197
  -5  -5  -6 6353.95  328.07   1 0.00004-0.12027-0.71829-0.97958 0.69574 0.16108
  -5  -5  -6 6881.56  363.04   1-0.51020-0.63116-0.49632-0.75747 0.70238 0.16689
   5  -5  -6 7638.51  364.58   1-0.57353-0.38114 0.21826-0.35410 0.78957 0.85401
   5  -5   6 7392.66  378.48   1-0.16203-0.43014 0.96124 0.62475 0.22307 0.65165
   5   5  -6 7162.92  328.20   1-0.21289 0.36999 0.85199 0.87610-0.47830-0.30910
   5  -5  -7  551.22   84.63   1 0.00006 0.23141 0.39348-0.19906 0.91933 0.95227
   5  -5   7  574.58  109.76   1 0.00010-0.30770 0.97304 0.65621 0.23060 0.68898
   5   5   7  630.38  107.16   1 0.00004 0.08363 0.70514 0.98600-0.70906-0.14420
  -5   5  -7  601.35  115.82   1 0.00010 0.30864-0.97347-0.65728-0.22877-0.68753
  -5  -5  -7  671.09  135.18   1-0.50155-0.58403-0.52123-0.80209 0.69047 0.12465
   5  -5  -7  605.34  123.08   1-0.57993-0.34925 0.16207-0.43002 0.79838 0.83252
   5  -5   7  644.36  133.26   1-0.11532-0.42182 0.98055 0.66372 0.15876 0.61768
   5   5   7  620.88  110.50   1-0.29369-0.20928 0.69164 0.97317-0.65982-0.09555
   5  -5  -8 3654.73  194.12   1 0.00006 0.26989 0.36941-0.24283 0.92926 0.93176
   5  -5   8 3586.88  227.03   1 0.00010-0.34620 0.98943 0.69194 0.14496 0.63352
   5   5   8 4466.39  247.06   1 0.00004 0.04526 0.69010 0.99067-0.72371-0.12849
  -5   5  -8 4456.24  257.17   1 0.00010 0.34732-0.98974-0.69313-0.14287-0.63160
  -5  -5  -8 3969.94  227.79   1 0.00004-0.04332-0.69006-0.99076 0.72374 0.12845
  -5  -5  -8 3812.39  265.63   1-0.49588-0.53989-0.53670-0.83727 0.68267 0.08652
   5  -5  -8 4095.94  250.72   1-0.58391-0.31484 0.11325-0.49849 0.80387 0.80769
   5  -5   8 4191.53  267.36   1-0.07042-0.41531 0.99279 0.69561 0.09695 0.58620
   5   5   8 4192.79  241.88   1-0.30546-0.25939 0.66007 0.96141-0.68628-0.09158
   5  -5  -9  119.43   75.90   1 0.00006 0.30837 0.35041-0.28152 0.93659 0.90864
   5  -5   9  124.36   96.76   1 0.00010-0.38462 0.99831 0.72050 0.05809 0.57700
   5   5   9   65.34   94.83   1 0.00004 0.00688 0.67317 0.99346-0.73948-0.11389
  -5   5  -9   67.07   92.10   1 0.00010 0.38575-0.99844-0.72161-0.05573-0.57485
  -5  -5  -9  127.53   98.95   1 0.00004-0.00484-0.67306-0.99347 0.73958 0.11397
  -5  -5  -9  113.63  123.83   1-0.49265-0.49818-0.54523-0.86552 0.67823 0.05175
   5  -5  -9  129.41  103.55   1-0.58618-0.27870 0.07181-0.55959 0.80699 0.78049
   5  -5   9  166.40  128.92   1-0.02755-0.41083 0.99890 0.72137 0.03793 0.55752
   5   5   9   75.59  110.92   1-0.31720-0.30945 0.62571 0.94687-0.71264-0.08751
   5  -5 -10 3196.68  150.65   1 0.00006 0.34686 0.33636-0.31526 0.94173 0.88334
   5  -5  10 3157.08  200.05   1 0.00009-0.42304 0.99959 0.74147-0.02844 0.52081
   5   5  10 3557.94  197.03   1 0.00004-0.03148 0.65446 0.99447-0.75608-0.10014
  -5   5 -10 3536.81  201.22   1 0.00009 0.42418-0.99951-0.74246 0.03104-0.51847
  -5  -5 -10 3529.42  188.51   1 0.00004 0.03362-0.65426-0.99438 0.75626 0.10033
  -5  -5 -10 3329.92  221.29   1-0.49140-0.45845-0.54849-0.88849 0.67651 0.01969
   5  -5 -10 3395.92  191.63   1-0.58729-0.24141 0.03733-0.61373 0.80851 0.75169
   5  -5  10 3707.49  219.08   1 0.01319-0.40847 0.99974 0.74187-0.01816 0.53175
   5   5  10 3134.63  196.80   1-0.32876-0.35934 0.58852 0.92950-0.73861-0.08305
   5  -5 -11  572.96   91.58   1 0.00006 0.38534 0.32709-0.34423 0.94499 0.85615
   5  -5  11  593.03  129.91   1 0.00009-0.46147 0.99349 0.75505-0.11385 0.46575
  -5  -5 -11  587.04  115.44   1 0.00003 0.07210-0.63374-0.99357 0.77354 0.08729
  -5  -5 -11  617.63  153.72   1-0.49175-0.42031-0.54760-0.90731 0.67698-0.01015
   5  -5 -11  571.29  125.42   1-0.58767-0.20339 0.00930-0.66142 0.80904 0.72190
   5  -5  11  623.03  151.97   1 0.05183-0.40822 0.99610 0.75787-0.07136 0.50889
   5   5  11  463.97  121.35   1-0.34003-0.40894 0.54843 0.90922-0.76393-0.07795
   5  -5 -12 2542.61  195.66   1 0.00006 0.42383 0.32239-0.36863 0.94660 0.82733
   5  -5  12 2504.17  230.37   1 0.00009-0.49938 0.98023 0.76201-0.19784 0.41224
   5   5  12 2168.18  192.05   1 0.00003-0.10823 0.61190 0.99134-0.79092-0.07425
  -5  -5 -12 2589.11  224.50   1 0.00003 0.11057-0.61153-0.99105 0.79122 0.07466
  -5  -5 -12 2559.30  255.08   1-0.49338-0.38347-0.54333-0.92276 0.67923-0.03823
   5  -5 -12 2503.32  226.44   1-0.58765-0.16497-0.01284-0.70323 0.80901 0.69155
   5  -5  12 2763.07  257.45   1 0.08845-0.40999 0.98860 0.77003-0.12177 0.48881
   5   5  12 2218.71  204.29   1-0.35089-0.45813 0.50536 0.88596-0.78834-0.07192
  -5  -7   0 2013.25  123.66   1 0.00009-0.43033 0.98608 0.72346-0.16625-0.53982
   5   7   0 2232.93  148.43   1 0.00002 0.43046 0.49062 0.75295-0.87137-0.49775
  -5  -7   0 2159.93  159.95   1 0.00002-0.42925-0.49201-0.75454 0.87058 0.49639
   5  -7   0 2514.59  217.00   1-0.43752-0.55333 0.66765 0.09364 0.60233 0.82767
   5   7   0 2177.61  162.52   1-0.29661 0.13459 0.68405 0.94628-0.66640-0.29398
   5  -7   1 2344.01  156.32   1 0.00009-0.15472 0.69046 0.13594 0.72336 0.97856
  -5  -7   1 2392.58  136.95   1 0.00009-0.46862 0.99212 0.74869-0.12521-0.46888
   5   7   1 2676.61  166.61   1 0.00002 0.39209 0.52029 0.80234-0.85398-0.45000
   5   7  -1 2774.25  172.67   1 0.00001 0.46883 0.44786 0.69047-0.89410-0.55085
  -5   7  -1 2533.72  161.83   1 0.00009 0.15668-0.69054-0.13618-0.72329-0.97821
  -5  -7  -1 2436.91  169.52   1 0.00002-0.39076-0.52144-0.80368 0.85328 0.44877
  -5  -7   1 2414.43  172.52   1 0.00001-0.46773-0.44958-0.69240 0.89323 0.54935
  -5  -7  -1 2121.66  186.94   1-0.54210-0.93380 0.38621 0.10348 0.74630 0.34247
   5  -7  -1 2775.54  215.94   1-0.46739-0.54483 0.60621 0.01254 0.64346 0.83845
   5  -7   1 2775.14  227.82   1-0.40392-0.55802 0.72637 0.17198 0.55607 0.81180
   5   7  -1 2648.83  173.52   1-0.29487 0.17466 0.68858 0.93100-0.66249-0.32050
   5   7   1 2839.12  184.71   1-0.29956 0.09331 0.67622 0.95827-0.67303-0.27019
   5  -7  -223716.24  608.48   1 0.00008-0.03936 0.55244-0.06122 0.83354 0.99734
   5  -7   222755.86  587.01   1 0.00009-0.19351 0.73851 0.20386 0.67423 0.95968
  -5  -7   224029.89  578.91   1 0.00009-0.50703 0.99783 0.77408-0.06576-0.37909
   5   7   224849.66  705.14   1 0.00002 0.35372 0.54034 0.84210-0.84144-0.40709
  -5   7  -222667.03  589.78   1 0.00009 0.19504-0.73878-0.20422-0.67393-0.95929
  -5  -7  -224783.55  673.31   1 0.00002-0.35228-0.54129-0.84324 0.84083 0.40600
  -5  -7   224027.12  637.47   1 0.00000-0.50622-0.38869-0.61181 0.92136 0.60780
  -5  -7  -222062.31  709.04   1-0.57547-0.92852 0.20286-0.09938 0.79225 0.35771
   5  -7   226771.20  763.97   1-0.36705-0.55954 0.78097 0.24623 0.50531 0.79137
  -5  -7   223355.53  807.39   1-0.16550-0.67224 0.95952 0.73543 0.22784-0.08497
   5   7  -224145.89  629.14   1-0.29453 0.21333 0.68946 0.91206-0.66172-0.35017
   5   7   223662.85  710.67   1-0.30356 0.05099 0.66536 0.96722-0.68200-0.24874
   5  -7  -3  919.77  112.82   1 0.00007-0.00055 0.51178-0.12162 0.85911 0.99257
   5  -7   3  847.95  119.01   1 0.00009-0.23194 0.78586 0.27092 0.61840 0.93423
  -5  -7   3  936.49   98.71   1 0.00010-0.54545 0.99980 0.79573 0.01975-0.26322
   5   7   3  892.44  123.85   1 0.00002 0.31536 0.55305 0.87452-0.83314-0.36844
  -5   7  -3  768.81  117.60   1 0.00009 0.23347-0.78625-0.27148-0.61790-0.93369
  -5  -7  -3  947.50  135.49   1 0.00002-0.31380-0.55384-0.87549 0.83262 0.36747
  -5  -7   3  907.26  129.09   1-0.00000-0.54470-0.30006-0.50347 0.95392 0.67067
  -5  -7  -3  809.57  134.80   1-0.58673-0.90137 0.05742-0.26448 0.80774 0.34287
   5  -7  -3  990.94  152.00   1-0.51502-0.51570 0.48170-0.15127 0.70902 0.84330
   5  -7   3 1160.94  181.54   1-0.32755-0.55843 0.83027 0.31518 0.45094 0.76733
  -5  -7   3  888.84   90.66   1 0.03380-0.51133 0.99834 0.79390-0.04653-0.32901
   5   7  -3  823.79  111.17   1-0.29580 0.25040 0.68618 0.88897-0.66456-0.38343
   5   7   3  778.75  123.06   1-0.30844 0.00778 0.65165 0.97333-0.69297-0.22927
   5  -7  -4 1509.32  132.13   1 0.00007 0.03792 0.47461-0.17849 0.88019 0.98321
   5  -7   4 1486.81  148.81   1 0.00010-0.27036 0.83117 0.33594 0.55600 0.90224
   5   7   4 1537.27  147.05   1 0.00002 0.27699 0.55996 0.90116-0.82851-0.33344
  -5   7  -4 1427.72  146.08   1 0.00010 0.27190-0.83165-0.33669-0.55529-0.90150
  -5  -7  -4 1692.70  159.63   1 0.00002-0.27533-0.56062-0.90197 0.82806 0.33260
  -5  -7   4 1468.72  146.22   1-0.00001-0.58320-0.16600-0.34971 0.98612 0.73319
  -5  -7  -4 1481.69  170.48   1-0.58680-0.86305-0.05514-0.39671 0.80784 0.31266
   5  -7  -4 1735.93  188.66   1-0.53285-0.49522 0.42181-0.23080 0.73357 0.83754
   5  -7   4 1710.74  212.13   1-0.28615-0.55542 0.87345 0.37800 0.39394 0.74068
   5   7  -4 1512.77  142.61   1-0.29889 0.28563 0.67803 0.86100-0.67151-0.42081
   5   7   4 1420.66  154.18   1-0.31406-0.03615 0.63522 0.97671-0.70558-0.21146
   5  -7  -5 2281.60  158.29   1 0.00007 0.07640 0.44143-0.23136 0.89729 0.96986
   5  -7   5 2185.58  181.84   1 0.00010-0.30879 0.87319 0.39767 0.48737 0.86400
   5   7   5 2706.26  198.22   1 0.00002 0.23861 0.56219 0.92310-0.82700-0.30157
  -5   7  -5 2481.55  193.22   1 0.00010 0.31021-0.87364-0.39840-0.48657-0.86315
  -5  -7  -5 2518.90  198.82   1 0.00002-0.23685-0.56272-0.92378 0.82664 0.30086
  -5  -7  -5 2149.82  204.05   1-0.58177-0.81956-0.14169-0.50280 0.80091 0.27478
   5  -7  -5 2491.58  216.57   1-0.54713-0.47112 0.36509-0.30718 0.75322 0.82685
   5  -7   5 2526.55  239.10   1-0.24355-0.55123 0.91008 0.43431 0.33529 0.71239
   5   7  -5 2623.58  188.64   1-0.30407 0.31878 0.66395 0.82711-0.68315-0.46288
   5   7   5 2343.25  185.70   1-0.32027-0.08070 0.61617 0.97747-0.71955-0.19499
   5  -7  -619108.62  928.48   1 0.00007 0.11488 0.41248-0.28001 0.91096 0.95309
   5  -7   617417.08  885.84   1 0.00010-0.34739 0.91044 0.45436 0.41361 0.82028
   5   7   620656.64  555.84   1 0.00002 0.20024 0.56050 0.94112-0.82815-0.27235
  -5   7  -619465.70  477.44   1 0.00010 0.34863-0.91119-0.45574-0.41197-0.81899
  -5  -7  -619883.19  468.57   1 0.00002-0.19837-0.56092-0.94169 0.82786 0.27176
  -5  -7  -618252.77  934.99   1-0.57501-0.77437-0.20662-0.58741 0.79161 0.23514
   5  -7  -621460.36  528.36   1-0.55825-0.44386 0.31256-0.37938 0.76854 0.81181
   5  -7   621117.41  597.43   1-0.20050-0.54657 0.94000 0.48388 0.27602 0.68345
   5   7   618260.12  930.88   1-0.32696-0.12571 0.59455 0.97567-0.73457-0.17959
   5  -7  -7 1094.90  120.45   1 0.00006 0.15337 0.38782-0.32436 0.92173 0.93341
   5  -7   7 1029.93  144.58   1 0.00010-0.38582 0.94243 0.50604 0.33438 0.77140
   5   7   7 1285.40  136.71   1 0.00002 0.16187 0.55547 0.95582-0.83153-0.24536
  -5   7  -7 1261.73  148.29   1 0.00010 0.38706-0.94314-0.50748-0.33238-0.76983
  -5  -7  -7 1124.51  139.19   1 0.00002-0.15989-0.55580-0.95627 0.83131 0.24490
  -5  -7  -7 1010.92  156.64   1-0.56820-0.72911-0.25541-0.65588 0.78224 0.19543
   5  -7  -7 1211.71  167.64   1-0.56671-0.41395 0.26483-0.44677 0.78018 0.79312
   5  -7  -8 1376.63  121.03   1 0.00006 0.19185 0.36749-0.36439 0.93002 0.91126
   5  -7   8 1280.55  155.29   1 0.00010-0.42426 0.96798 0.55127 0.25102 0.71839
   5   7   8 1492.04  145.11   1 0.00002 0.12350 0.54753 0.96759-0.83678-0.22025
  -5   7  -8 1434.93  139.58   1 0.00010 0.42548-0.96858-0.55271-0.24868-0.71656
  -5  -7  -8 1423.27  148.65   1 0.00002-0.12141-0.54775-0.96793 0.83663 0.21990
  -5  -7  -8 1371.76  164.79   1-0.56214-0.68461-0.29169-0.71185 0.77389 0.15675
   5  -7  -8 1507.87  164.44   1-0.57300-0.38185 0.22226-0.50900 0.78884 0.77142
   5   7   8 1365.09  157.95   1-0.34127-0.21668 0.54376 0.96451-0.76672-0.15088
   5  -7  -9 1418.71  129.90   1 0.00006 0.23034 0.35140-0.40017 0.93622 0.88702
   5  -7   9 1383.72  173.66   1 0.00010-0.46270 0.98637 0.58936 0.16451 0.66224
   5   7   9 1444.33  163.29   1 0.00002 0.08513 0.53698 0.97676-0.84359-0.19669
  -5  -7  -9 1422.49  178.32   1-0.55716-0.64118-0.31817-0.75801 0.76703 0.11955
   5  -7  -9 1553.69  170.71   1-0.57755-0.34807 0.18503-0.56594 0.79510 0.74736
   5   7   9 1200.31  153.88   1-0.34866-0.26240 0.51460 0.95517-0.78333-0.13706
   5  -7 -1011957.48  712.94   1 0.00006 0.26882 0.33946-0.43180 0.94061 0.86097
   5  -7  1011702.70  734.16   1 0.00010-0.50125 0.99707 0.61926 0.07648 0.60435
   5   7  1012800.95  419.83   1 0.00002 0.04675 0.52407 0.98356-0.85167-0.17441
  -5  -7 -1012625.72  389.79   1 0.00002-0.04446-0.52409-0.98368 0.85165 0.17429
  -5  -7 -1012438.47  421.65   1-0.55335-0.59894-0.33684-0.79637 0.76179 0.08398
   5  -7 -1013570.13  402.37   1-0.58078-0.31290 0.15295-0.61769 0.79955 0.72149
   5   7  1010467.05  666.67   1-0.35607-0.30815 0.48293 0.94331-0.79999-0.12329
   5  -7 -11  569.63   95.54   1 0.00006 0.30730 0.33153-0.45943 0.94344 0.83335
   5  -7  11  568.00  143.10   1 0.00009-0.53967 0.99991 0.64179-0.01338 0.54484
  -5  -7 -11  607.38  150.75   1-0.55069-0.55784-0.34922-0.82844 0.75813 0.04999
   5  -7 -11  608.84  127.92   1-0.58302-0.27674 0.12590-0.66439 0.80264 0.69425
   5  -7  11  627.51  172.70   1 0.00552-0.53249 0.99995 0.64210-0.00760 0.55150
   5   7  11  608.81  128.84   1-0.36340-0.35380 0.44871 0.92890-0.81645-0.10933
   5  -9   0 1123.12  121.56   1 0.00008-0.19439 0.63138-0.06238 0.77546 0.97893
  -5  -9   0 1197.34  137.90   1-0.00000-0.50735-0.26566-0.64766 0.96406 0.56843
   5  -9   0 1514.22  212.27   1-0.42327-0.61707 0.69374 0.00014 0.58271 0.78690
   5   9   0  894.76  118.65   1-0.34544 0.16428 0.52757 0.90921-0.77609-0.38254
   5  -9  -1  436.18  104.27   1 0.00008-0.15593 0.59045-0.12303 0.80706 0.98007
   5  -9   1  429.87  111.73   1 0.00009-0.23284 0.67416 0.00010 0.73857 0.97251
  -5   9  -1  365.12  109.22   1 0.00009 0.23513-0.67440-0.00059-0.73835-0.97196
  -5  -9   1  489.76  113.00   1-0.00001-0.54583-0.20945-0.57175 0.97781 0.61250
   5  -9  -1  529.28  170.09   1-0.44977-0.60519 0.64366-0.06958 0.61919 0.79302
   5  -9   1  515.43  190.10   1-0.39391-0.62597 0.74211 0.06809 0.54229 0.77686
   5   9  -1  370.03  107.76   1-0.34591 0.20213 0.52571 0.88753-0.77715-0.41403
   5   9   1  363.82  105.55   1-0.34593 0.12546 0.52563 0.92708-0.77719-0.35321
   5  -9  -2 9624.21  330.52   1 0.00008-0.11748 0.55198-0.18122 0.83385 0.97639
   5  -9   2 9688.96  305.83   1 0.00009-0.27129 0.71805 0.06371 0.69598 0.96038
   5   9   210041.46  342.49   1 0.00000 0.43196 0.33906 0.76031-0.94076-0.48510
  -5   9  -2 9178.08  301.02   1 0.00009 0.27347-0.71835-0.06433-0.69567-0.95972
  -5  -9  -210310.12  338.02   1 0.00000-0.43038-0.34051-0.76192 0.94024 0.48397
  -5  -9   210104.82  361.46   1-0.00001-0.58432-0.13543-0.47802 0.99078 0.65578
   5   9   2 9150.00  338.46   1-0.34727 0.08579 0.52027 0.94153-0.78020-0.32579
   5   9  -2 9290.28  329.81   1-0.34744 0.23893 0.51955 0.86156-0.78060-0.44790
   5  -9   3  347.30  108.07   1 0.00009-0.31008 0.76200 0.12756 0.64757 0.94211
   5   9   3  384.16  117.86   1 0.00000 0.39359 0.36301 0.80397-0.93178-0.44576
  -5   9  -3  333.86  103.83   1 0.00009 0.31190-0.76254-0.12832-0.64693-0.94140
  -5  -9  -3  375.73  110.74   1 0.00000-0.39190-0.36425-0.80537 0.93129 0.44471
   5  -9  -3  470.49  153.67   1-0.49363-0.57231 0.54266-0.20990 0.67958 0.79271
   5   9   3  359.63  113.18   1-0.34935 0.04538 0.51176 0.95284-0.78488-0.30005
   5   9  -3  337.55   98.59   1-0.35015 0.27455 0.50844 0.83063-0.78668-0.48441
   5  -9  -4 1711.61  144.05   1 0.00007-0.04011 0.48430-0.28843 0.87489 0.95665
   5  -9   4 1676.66  151.59   1 0.00009-0.34850 0.80536 0.19063 0.59278 0.91771
   5   9   4 1830.81  145.05   1 0.00000 0.35522 0.38008 0.84076-0.92495-0.40856
  -5   9  -4 1618.41  137.99   1 0.00009 0.35033-0.80599-0.19156-0.59192-0.91682
  -5  -9  -4 1728.36  158.15   1 0.00000-0.35342-0.38115-0.84198 0.92450 0.40761
  -5  -9  -4 1582.57  171.67   1-0.57427-0.92884 0.21255-0.24872 0.79058 0.27456
   5  -9  -4 2118.44  204.34   1-0.51108-0.55138 0.49369-0.27852 0.70360 0.78637
   5   9   4 1523.07  157.89   1-0.35208 0.00432 0.50032 0.96121-0.79102-0.27575
   5  -9  -5  518.28  103.25   1 0.00007-0.00163 0.45552-0.33690 0.89022 0.94153
   5  -9   5  489.15  135.74   1 0.00010-0.38693 0.84693 0.25191 0.53170 0.88703
   5   9   5  508.59  122.52   1 0.00000 0.31685 0.39146 0.87186-0.92019-0.37344
  -5   9  -5  501.16  120.41   1 0.00010 0.38875-0.84762-0.25300-0.53059-0.88592
  -5  -9  -5  572.10  140.15   1 0.00000-0.31494-0.39238-0.87291 0.91980 0.37258
  -5  -9  -5  487.34  134.98   1-0.58307-0.89891 0.12522-0.35557 0.80271 0.25595
   5  -9  -5  564.17  166.14   1-0.52573-0.52771 0.44693-0.34492 0.72377 0.77623
   5   9   5  440.34  119.47   1-0.35536-0.03728 0.48611 0.96683-0.79837-0.25268
   5  -9  -6 6432.27  420.83   1 0.00007 0.03685 0.43036-0.38176 0.90265 0.92352
   5  -9   6 6368.56  439.02   1 0.00010-0.42535 0.88559 0.31029 0.46444 0.85016
   5   9   6 6994.62  477.51   1 0.00000 0.27848 0.39803 0.89814-0.91736-0.34025
  -5   9  -6 6934.13  456.42   1 0.00010 0.42705-0.88623-0.31131-0.46323-0.84894
  -5  -9  -6 6686.99  459.65   1 0.00001-0.27646-0.39881-0.89905 0.91702 0.33949
  -5  -9  -6 6023.18  432.14   1-0.58685-0.86429 0.05357-0.44687 0.80791 0.23083
   5  -9  -6 7432.70  496.91   1-0.53788-0.50148 0.40293-0.40858 0.74049 0.76260
   5  -9   6 7229.09  527.59   1-0.21506-0.63909 0.93063 0.35488 0.29607 0.68235
   5   9   6 5918.07  413.41   1-0.35908-0.07933 0.46927 0.96980-0.80674-0.23062
   5  -9  -7  229.71   97.13   1 0.00007 0.07533 0.40887-0.42294 0.91258 0.90301
   5  -9   7  186.73  128.35   1 0.00010-0.46395 0.91998 0.36402 0.39194 0.80760
   5   9   7  229.86  125.65   1 0.00001 0.24011 0.40048 0.92031-0.91630-0.30882
  -5  -9  -7  204.80  118.04   1 0.00001-0.23798-0.40113-0.92108 0.91601 0.30816
  -5  -9  -7  214.78  127.95   1-0.58769-0.82673-0.00508-0.52520 0.80906 0.20166
   5  -9  -7  210.75  115.04   1-0.54778-0.47301 0.36225-0.46893 0.75412 0.74589
   5  -9   7  314.48  181.37   1-0.17594-0.63835 0.95413 0.39803 0.24221 0.65883
   5   9   7  193.17   99.83   1-0.36316-0.12174 0.44988 0.97022-0.81591-0.20936
  -6   0   014203.53  553.54   1 0.00009-0.18798 0.74598 0.93299 0.66596 0.30690
   6   0   012896.18  630.44   1 0.00010 0.18796 0.97339 0.78648 0.22913 0.58831
   6   0   013710.50  518.04   1 0.00009 0.18779-0.74558-0.93283-0.66640-0.30750
  -6   0   011920.93  524.66   1 0.00010-0.18764-0.97308-0.78583-0.23045-0.58928
  -6   0   012058.69  533.61   1-0.54743-0.73596 0.36375 0.55030 0.75365 0.39435
   6   0   013785.79  560.15   1-0.23315-0.04461 0.91794 0.73155 0.32097 0.68031
  -6   0   1 5705.05  293.82   1 0.00009-0.22685 0.67849 0.88521 0.73460 0.40612
  -6   0  -1 5560.65  282.25   1 0.00009-0.14955 0.79828 0.96557 0.60228 0.21283
   6   0  -1 5073.84  258.77   1 0.00010 0.22640 0.95599 0.74938 0.29338 0.62222
   6   0   1 5169.46  258.63   1 0.00010 0.14953 0.98644 0.81922 0.16410 0.55364
   6   0  -1 5437.46  267.35   1 0.00009 0.22618-0.67816-0.88524-0.73490-0.40641
   6   0   1 5295.19  260.28   1 0.00009 0.14937-0.79807-0.96551-0.60255-0.21322
  -6   0   1 5024.92  265.49   1 0.00010-0.22607-0.95546-0.74842-0.29509-0.62350
  -6   0  -1 5099.41  264.61   1 0.00010-0.14895-0.98626-0.81881-0.16519-0.55439
  -6   0   1 5098.69  326.13   1-0.58124-0.80788 0.14778 0.35411 0.80019 0.47108
  -6   0  -1 4525.14  268.68   1-0.49491-0.64513 0.53929 0.70618 0.68133 0.29172
   6   0  -1 5424.01  277.61   1-0.31870-0.09177 0.84019 0.63414 0.43875 0.76774
   6   0   1 5391.67  277.18   1-0.15468-0.00454 0.96474 0.79800 0.21295 0.60262
  -6   0   2 3264.67  207.01   1 0.00008-0.26531 0.59400 0.82044 0.80445 0.50643
  -6   0  -2 2902.84  190.32   1 0.00010-0.11112 0.83827 0.98586 0.54524 0.12539
   6   0  -2 2920.18  178.97   1 0.00010 0.26483 0.93449 0.70819 0.35597 0.65446
   6   0   2 2910.86  196.90   1 0.00010 0.11114 0.99506 0.84751 0.09926 0.51900
   6   0   2 2934.28  176.56   1 0.00010 0.11094-0.83821-0.98586-0.54533-0.12557
  -6   0   2 2875.98  180.42   1 0.00010-0.26449-0.93369-0.70686-0.35806-0.65604
  -6   0   2 2894.41  240.61   1-0.58547-0.85051-0.08691 0.13906 0.80601 0.50723
  -6   0  -2 2578.65  187.79   1-0.43693-0.54877 0.66878 0.81601 0.60151 0.18155
   6   0  -2 3152.54  214.28   1-0.40346-0.13815 0.72711 0.50141 0.55544 0.85410
   6   0   2 2953.38  184.06   1-0.08622 0.02552 0.98917 0.84210 0.11870 0.53871
  -6   0   3 5342.52  282.33   1 0.00007-0.30383 0.49180 0.73760 0.87070 0.60300
   6   0  -3 4826.00  238.63   1 0.00010 0.30327 0.90941 0.66342 0.41589 0.68403
   6   0   3 4724.49  252.07   1 0.00010 0.07272 0.99939 0.87153 0.03482 0.48491
   6   0   3 4724.31  238.84   1 0.00010 0.07252-0.86848-0.99632-0.49571-0.04553
  -6   0   3 4676.84  242.95   1 0.00010-0.30291-0.90828-0.66166-0.41834-0.68589
  -6   0   3 4743.79  305.55   1-0.55959-0.86298-0.30554-0.05947 0.77038 0.50171
   6   0  -3 5266.85  279.94   1-0.47691-0.17320 0.58436 0.33883 0.65656 0.92476
  -6   0  -3 4203.60  242.75   1-0.38236-0.45573 0.75941 0.88686 0.52639 0.07605
   6   0   3 4713.13  249.87   1-0.02757 0.04579 0.99889 0.87147 0.03795 0.48830
  -6   0   4 6149.89  315.92   1 0.00006-0.34232 0.37055 0.63604 0.92881 0.69155
   6   0  -4 5543.42  261.48   1 0.00010 0.34189 0.88118 0.61533 0.47277 0.71025
   6   0   4 5287.72  263.17   1 0.00009 0.03429 0.99959 0.89141-0.02855 0.45188
  -6   0   4 5333.76  262.31   1 0.00010-0.34133-0.88004-0.61362-0.47488-0.71200
  -6   0  -4 5474.17  282.70   1 0.00009-0.03366-0.99959-0.89146 0.02856-0.45183
  -6   0   4 5395.63  328.57   1-0.51396-0.85567-0.48497-0.21888 0.70756 0.46894
   6   0  -4 5842.43  294.96   1-0.53034-0.18830 0.43088 0.16569 0.73011 0.96803
  -6   0  -4 4820.14  250.99   1-0.33573-0.37071 0.82076 0.92856 0.46219-0.01847
   6   0   4 5430.07  276.00   1 0.02274 0.05771 0.99925 0.89147-0.03130 0.44937
  -6   0   5 3654.38  231.96   1 0.00005-0.38078 0.23395 0.51904 0.97224 0.76524
   6   0  -5 3415.12  194.63   1 0.00010 0.38032 0.85145 0.56590 0.52442 0.73151
   6   0   5 3371.77  210.40   1 0.00009-0.00412 0.99589 0.90740-0.09054 0.42024
  -6   0   5 3386.80  197.62   1 0.00010-0.37972-0.85009-0.56384-0.52663-0.73340
  -6   0  -5 3415.42  215.33   1 0.00009 0.00497-0.99587-0.90751 0.09068-0.41998
  -6   0   5 3421.13  257.82   1-0.46012-0.84031-0.62212-0.33632 0.63344 0.42515
   6   0  -5 3507.71  213.85   1-0.56334-0.18293 0.28487 0.00001 0.77555 0.98312
  -6   0  -5 2918.72  187.29   1-0.29771-0.29430 0.86219 0.95034 0.40985-0.10114
   6   0   5 3374.81  202.97   1 0.06634 0.06292 0.99360 0.90548-0.09133 0.41968
  -6   0   6  435.90  104.20   1 0.00004-0.41928 0.08527 0.39007 0.99635 0.81978
   6   0  -6  405.97   79.93   1 0.00010 0.41874 0.82123 0.51597 0.57058 0.74727
   6   0   6  398.05  101.74   1 0.00009-0.04223 0.98854 0.91981-0.15090 0.39006
  -6   0   6  408.79   74.93   1 0.00010-0.41815-0.81961-0.51356-0.57291-0.74926
  -6   0  -6  429.14   98.76   1 0.00009 0.04342-0.98849-0.91987 0.15124-0.38980
  -6   0   6  435.31  114.37   1-0.40674-0.82526-0.72179-0.41636 0.55996 0.38153
   6   0  -6  433.50   89.45   1-0.58015-0.16151 0.15978-0.14483 0.79868 0.97618
  -6   0  -6  426.61   89.70   1-0.26770-0.22589 0.89023 0.95870 0.36854-0.17280
   6   0   6  422.31  100.67   1 0.10465 0.06285 0.98401 0.91554-0.14408 0.39726
  -6   0   7 4465.90  245.79   1 0.00002-0.45778-0.06858 0.25590 0.99764 0.85144
   6   0  -7 5377.95  233.47   1 0.00009 0.45717 0.79189 0.46692 0.61065 0.75695
  -6   0   7 5128.53  231.57   1 0.00009-0.45658-0.79002-0.46418-0.61306-0.75899
  -6   0  -7 5145.69  255.70   1 0.00009 0.08187-0.97769-0.92881 0.21002-0.36139
  -6   0   7 5569.64  316.28   1-0.35650-0.81353-0.79500-0.46984 0.49079 0.34265
   6   0  -7 5343.58  249.24   1-0.58673-0.12969 0.05728-0.26699 0.80774 0.95493
   6   0  -8 4237.21  216.60   1 0.00009 0.49560 0.76477 0.42008 0.64430 0.76020
  -6   0   8 4053.60  210.91   1 0.00009-0.49500-0.76269-0.41704-0.64676-0.76226
  -6   0  -8 4237.56  246.74   1 0.00008 0.12032-0.96370-0.93456 0.26695-0.33483
  -6   0   8 3681.85  233.44   1-0.00000-0.49505-0.21761 0.12678 0.97603 0.85956
  -6   0   8 4530.85  287.35   1-0.31096-0.80636-0.84854-0.50356 0.42810 0.31015
   6   0  -8 4235.65  236.63   1-0.58754-0.09210-0.02286-0.36680 0.80886 0.92572
   6   0   8 3909.98  232.09   1-0.13070-0.24967 0.94693 0.91794-0.29364 0.30829
   6   0   9 1785.76  158.03   1 0.00008-0.15736 0.94698 0.93736-0.32127 0.31078
  -6   0   9 1848.58  165.00   1 0.00009-0.53343-0.73882-0.37337-0.67390-0.75897
  -6   0  -9 1961.92  168.21   1 0.00008 0.15877-0.94673-0.93733 0.32200-0.31016
  -6   0   9 1578.32  151.86   1 0.00000-0.53351-0.36260 0.00150 0.93194 0.84579
   6   0  -9 1930.41  150.88   1-0.58562-0.05178-0.08394-0.44754 0.80622 0.89276
   6   0   9 1802.09  159.71   1-0.16160-0.31896 0.91764 0.90871-0.36306 0.26926
   6   0  10 1023.82  142.40   1 0.00008-0.19573 0.92730 0.93737-0.37431 0.28811
  -6   0  10  911.30  103.99   1 0.00009-0.57186-0.71945-0.33420-0.69454-0.74918
  -6   0 -10 1006.42  140.56   1 0.00008 0.19766-0.92699-0.93728 0.37507-0.28708
   6   0  10  820.35  126.55   1-0.19207-0.38780 0.88141 0.89227-0.43153 0.23122
   6   0  11 3129.22  187.26   1 0.00007-0.23420 0.90490 0.93476-0.42561 0.26715
  -6   0 -11 3184.84  187.92   1 0.00007 0.23614-0.90456-0.93456 0.42634-0.26613
   6   0  11 2864.58  178.87   1-0.22202-0.45610 0.83778 0.86843-0.49881 0.19437
   6   0  12 3451.96  205.79   1 0.00007-0.27258 0.88001 0.92957-0.47495 0.24817
  -6   0 -12 3585.15  206.72   1 0.00007 0.27461-0.87957-0.92927 0.47576-0.24703
   6   0  12 3123.31  191.59   1-0.25132-0.52354 0.78614 0.83710-0.56463 0.15862
   6   0  13  778.21  145.16   1 0.00006-0.31095 0.85264 0.92192-0.52248 0.23100
  -6   0 -13  870.66  149.02   1 0.00006 0.31309-0.85210-0.92151 0.52337-0.22973
  -6   0 -13  733.15  159.41   1-0.29283 0.02056-0.86702-0.93628 0.40313-0.35064
  -6   2   024691.77  914.53   1 0.00008-0.11028 0.55629 0.86284 0.83098 0.49328
   6  -2   024247.37  875.91   1 0.00010 0.11004 0.88082 0.57432 0.47344 0.81119
  -6  -2   026224.49  990.76   1 0.00010-0.26612 0.89405 0.96156 0.44795 0.06759
   6   2   024561.64  971.31   1 0.00009 0.26618 0.99351 0.92628-0.11368 0.26673
   6   2   023460.58  836.43   1 0.00010 0.26627-0.89367-0.96145-0.44872-0.06857
  -6  -2   024504.54  885.37   1 0.00009-0.26556-0.99366-0.92612 0.11234-0.26788
  -6   2   022387.66  888.43   1-0.56208-0.67261 0.29201 0.59813 0.77381 0.43568
  -6  -2   023815.80  916.34   1-0.53544-0.80196 0.41223 0.47920 0.73713 0.35667
   6  -2   025398.96  927.31   1-0.36521-0.25463 0.78346 0.47743 0.50279 0.84096
  -6   2   1 8991.63  398.06   1 0.00007-0.14882 0.48333 0.80938 0.87543 0.56810
   6  -2  -1 8388.62  359.78   1 0.00010 0.14847 0.84522 0.51901 0.53441 0.84177
  -6  -2   1 9156.65  401.86   1 0.00010-0.30455 0.84815 0.93537 0.52974 0.17978
   6  -2   1 8287.17  371.11   1 0.00010 0.07140 0.91283 0.62604 0.40833 0.77651
  -6  -2  -1 8891.62  390.39   1 0.00010-0.22745 0.92559 0.97325 0.37851-0.03237
   6   2  -1 8793.98  376.10   1 0.00009 0.30460 0.99749 0.91058-0.07067 0.27938
   6   2   1 8478.08  371.11   1 0.00009 0.22787 0.98768 0.93998-0.15648 0.25397
   6   2  -1 8195.63  350.78   1 0.00010 0.30465-0.84753-0.93511-0.53073-0.18094
  -6   2   1 8560.11  369.79   1 0.00010-0.14759-0.84467-0.51816-0.53527-0.84244
   6   2   1 7948.39  338.36   1 0.00010 0.22785-0.92520-0.97319-0.37946 0.03111
  -6  -2   1 8332.84  376.69   1 0.00009-0.30422-0.99764-0.91016 0.06862-0.28116
  -6  -2  -1 8360.33  380.76   1 0.00009-0.22711-0.98777-0.93997 0.15590-0.25470
  -6  -2   1 7895.82  408.96   1-0.58562-0.89021-0.08394 0.00317 0.80622 0.45552
  -6   2   1 8071.09  436.19   1-0.58118-0.72983 0.14847 0.47437 0.80011 0.49225
  -6   2  -1 7356.82  383.48   1-0.53319-0.60534 0.42058 0.70704 0.73403 0.36556
   6  -2  -1 9294.79  424.31   1-0.42117-0.27219 0.69743 0.37164 0.57982 0.88757
  -6  -2  -1 7748.93  383.70   1-0.42701-0.65522 0.68707 0.73438 0.58786 0.17710
   6  -2   1 8706.38  401.49   1-0.30578-0.23358 0.85398 0.56760 0.42096 0.78947
  -6   2   2 4254.95  237.60   1 0.00006-0.18731 0.39962 0.74536 0.91667 0.63979
  -6   2  -2 4288.92  231.57   1 0.00009-0.03335 0.67202 0.93914 0.74052 0.34190
  -6  -2   2 4398.93  247.18   1 0.00009-0.34298 0.78193 0.88885 0.62336 0.30379
   6  -2  -2 4105.84  220.68   1 0.00009 0.18689 0.80707 0.46115 0.59044 0.86741
  -6  -2  -2 4219.39  224.44   1 0.00010-0.18901 0.94674 0.97470 0.32199-0.11925
   6  -2   2 3993.71  219.45   1 0.00010 0.03297 0.94038 0.67328 0.34011 0.73864
   6   2  -2 4110.74  222.81   1 0.00009 0.34302 0.99959 0.89299-0.02835 0.29136
   6   2   2 3932.99  216.31   1 0.00009 0.18949 0.97983 0.95184-0.19980 0.24101
   6  -2   2 4375.12  226.70   1 0.00009 0.03245-0.67196-0.93909-0.74058-0.34213
   6   2  -2 3981.40  215.70   1 0.00009 0.34307-0.78095-0.88833-0.62459-0.30523
  -6   2   2 4036.92  222.07   1 0.00009-0.18601-0.80633-0.46002-0.59145-0.86820
  -6   2  -2 4001.16  230.55   1 0.00010-0.03238-0.94026-0.67312-0.34043-0.73882
   6   2   2 3733.00  194.95   1 0.00010 0.18943-0.94652-0.97473-0.32262 0.11838
  -6  -2   2 4051.33  229.65   1 0.00009-0.34265-0.99966-0.89241 0.02581-0.29357
  -6  -2  -2 4107.94  236.74   1 0.00009-0.18866-0.97992-0.95185 0.19937-0.24160
  -6  -2   2 4001.06  264.15   1-0.42747-0.77004-0.68624-0.57922 0.58849 0.26745
  -6   2   2 3864.27  289.56   1-0.58769-0.77474-0.00315 0.34240 0.80907 0.53154
  -6   2  -2 3338.81  222.33   1-0.49865-0.53250 0.52921 0.79603 0.68649 0.28768
   6  -2  -2 4517.32  255.64   1-0.47027-0.28292 0.59974 0.25429 0.64741 0.92481
  -6  -2  -2 3771.65  217.95   1-0.33131-0.52102 0.82594 0.85341 0.45611 0.01496
   6  -2   2 4225.15  245.55   1-0.24568-0.21188 0.90842 0.64171 0.33823 0.73709
  -6   2   3 7206.52  346.42   1 0.00006-0.22580 0.30635 0.67179 0.95191 0.70547
  -6  -2   3 6196.47  311.19   1 0.00009-0.38188 0.68761 0.81422 0.72607 0.43726
   6  -2  -3 5596.19  259.68   1 0.00009 0.22532 0.76760 0.40197 0.64092 0.88749
  -6  -2  -3 5897.75  281.97   1 0.00010-0.15058 0.96093 0.96920 0.27676-0.19483
   6  -2   3 5665.33  285.54   1 0.00010-0.00546 0.96295 0.71555 0.26965 0.69853
   6   2  -3 6904.38  310.16   1 0.00010 0.38144 0.99991 0.87363 0.01273 0.30210
   6   2   3 6643.93  307.88   1 0.00008 0.15112 0.97006 0.96177-0.24282 0.22835
   6   2  -3 6835.11  308.63   1 0.00009 0.38147-0.68688-0.81412-0.72676-0.43781
  -6   2   3 6678.28  300.28   1 0.00009-0.22444-0.76667-0.40056-0.64203-0.88835
   6   2   3 6308.75  280.93   1 0.00010 0.15101-0.96083-0.96924-0.27712 0.19431
  -6   2  -3 6626.28  307.93   1 0.00010 0.00603-0.96295-0.71560-0.26966-0.69848
  -6  -2   3 5628.03  288.29   1 0.00010-0.38108-0.99987-0.87284-0.01582-0.30481
  -6  -2  -3 5774.86  294.00   1 0.00008-0.15021-0.97013-0.96181 0.24255-0.22880
  -6   2   3 6930.20  402.77   1-0.58078-0.80609-0.15294 0.21270 0.79955 0.55223
   6  -2  -3 6356.82  316.52   1-0.51037-0.28465 0.49580 0.13069 0.70263 0.94967
  -6   2  -3 5738.60  298.77   1-0.46232-0.45780 0.61738 0.86454 0.63647 0.20731
  -6  -2  -3 5434.18  267.51   1-0.26039-0.41171 0.89648 0.90427 0.35848-0.11301
   6  -2   3 6210.66  311.86   1-0.18731-0.19190 0.94784 0.70078 0.25787 0.68707
   6   2  -3 6698.77  300.44   1-0.09127 0.29040 0.98786 0.86214 0.12566 0.41517
  -6   2   422802.39  928.22   1 0.00005-0.26425 0.20561 0.59065 0.97863 0.76243
  -6  -2   424258.24  954.01   1 0.00008-0.42035 0.55897 0.70529 0.82918 0.57083
   6  -2  -421317.42  805.54   1 0.00009 0.26428 0.72780 0.34239 0.68578 0.90161
   6  -2   421052.68  804.73   1 0.00010-0.04389 0.98022 0.75251 0.19788 0.65711
   6   2  -422604.60  839.38   1 0.00010 0.41986 0.99865 0.85268 0.05186 0.31087
   6   2   421375.90  810.17   1 0.00008 0.11274 0.95841 0.96982-0.28537 0.21616
  -6   2   421927.82  809.19   1 0.00009-0.26287-0.72700-0.34109-0.68663-0.90252
  -6   2  -421492.91  811.83   1 0.00010 0.04474-0.98020-0.75257-0.19797-0.65698
  -6  -2   422331.49  848.18   1 0.00010-0.41951-0.99845-0.85165-0.05555-0.31415
  -6   2   422581.59  943.21   1-0.56190-0.82565-0.29303 0.09230 0.77356 0.55657
   6  -2  -423003.09  920.86   1-0.54058-0.27654 0.39230 0.00753 0.74421 0.96097
   6   2  -424302.08  884.18   1-0.39665 0.02339 0.73788 0.59252 0.54606 0.80521
  -6  -2  -420920.66  796.28   1-0.20986-0.32279 0.93406 0.92220 0.28891-0.21291
   6  -2   422973.87  896.76   1-0.13206-0.17504 0.97442 0.74701 0.18181 0.64134
  -6   2   5 6985.73  395.34   1 0.00004-0.30276 0.09852 0.50326 0.99513 0.80935
  -6  -2   5 7762.15  442.14   1 0.00006-0.45884 0.39174 0.55729 0.92007 0.69200
   6  -2  -5 6599.61  344.91   1 0.00009 0.30274 0.68949 0.28437 0.72429 0.90965
   6   2  -5 7216.82  386.48   1 0.00010 0.45828 0.99611 0.83046 0.08805 0.31671
   6   2   5 6696.09  368.16   1 0.00008 0.07436 0.94490 0.97602-0.32733 0.20457
  -6   2   5 6698.72  359.67   1 0.00009-0.30125-0.68857-0.28282-0.72516-0.91063
  -6   2  -5 6786.43  381.02   1 0.00010 0.08317-0.99210-0.78424-0.12544-0.61485
  -6  -2   5 6895.27  381.60   1 0.00010-0.45794-0.99571-0.82914-0.09244-0.32063
  -6   2   5 7313.25  464.92   1-0.53408-0.83613-0.41731-0.01196 0.73525 0.54839
   6  -2  -5 7512.39  410.61   1-0.56160-0.25919 0.29465-0.10977 0.77315 0.95956
  -6  -2  -5 6496.92  355.73   1-0.17442-0.24896 0.95494 0.92343 0.24012-0.29204
   6  -2   5 7085.91  396.26   1-0.08060-0.16197 0.99055 0.78279 0.11096 0.60082
   6   2   5 6367.55  354.78   1-0.13726-0.06272 0.94130 0.97269-0.30839 0.22343
  -6   2   6 2996.60  199.87   1 0.00003-0.34126-0.01186 0.41258 0.99993 0.84457
  -6  -2   6 3369.18  220.79   1 0.00005-0.49731 0.18398 0.36913 0.98292 0.78512
   6  -2  -6 3021.25  168.36   1 0.00008 0.34119 0.65362 0.22878 0.75682 0.91172
   6   2  -6 3268.93  178.97   1 0.00010 0.49670 0.99277 0.80743 0.12003 0.31833
   6   2   6 3034.16  188.29   1 0.00008 0.03599 0.92959 0.98040-0.36859 0.19368
  -6   2   6 2867.13  167.52   1 0.00008-0.33968-0.65264-0.22707-0.75766-0.91271
  -6  -2   6 3161.58  187.75   1 0.00010-0.49637-0.99213-0.80578-0.12519-0.32299
  -6   2  -6 3090.24  196.17   1 0.00010 0.12160-0.99858-0.81049-0.05317-0.57297
  -6  -2  -6 3266.67  201.46   1 0.00008-0.03432-0.92953-0.98047 0.36872-0.19361
  -6   2   6 3376.44  262.27   1-0.50022-0.84076-0.52490-0.09983 0.68865 0.53211
   6  -2  -6 3399.67  201.37   1-0.57497-0.23418 0.20693-0.21715 0.79156 0.94762
  -6  -2  -6 2903.41  174.68   1-0.14994-0.18610 0.96690 0.91574 0.20642-0.35607
   6  -2   6 3255.10  204.98   1-0.03306-0.15282 0.99841 0.81031 0.04551 0.56571
   6   2   6 2948.72  186.06   1-0.15939-0.12321 0.91997 0.97115-0.35811 0.20414
   6  -2  -7 4914.92  230.03   1 0.00008 0.37964 0.62116 0.17661 0.78367 0.90811
   6  -2   7 4779.28  264.18   1 0.00009-0.15916 0.99985 0.83104-0.01717 0.53294
   6   2   7 5342.66  273.26   1 0.00007-0.00238 0.91249 0.98300-0.40909 0.18354
  -6  -2   7 5211.74  268.77   1 0.00010-0.53480-0.98836-0.78224-0.15210-0.31950
  -6   2  -7 5356.27  283.38   1 0.00009 0.16003-0.99983-0.83152 0.01826-0.53194
  -6  -2  -7 5206.35  271.26   1 0.00007 0.00414-0.91239-0.98303 0.40931-0.18334
  -6  -2  -7 5133.67  304.14   1-0.29186-0.28762-0.86796-0.93834 0.40180-0.19180
  -6   2   7 5828.73  345.47   1-0.46317-0.84218-0.61553-0.17075 0.63764 0.51143
   6  -2  -7 5438.46  274.14   1-0.58258-0.20354 0.13167-0.31217 0.80203 0.92796
   6  -2   7 5237.18  274.08   1 0.01071-0.14743 0.99983 0.83138-0.01475 0.53578
   6   2   7 5126.01  270.78   1-0.18177-0.18395 0.89452 0.96550-0.40838 0.18430
   6  -2  -813970.90  378.69   1 0.00008 0.41810 0.59290 0.12864 0.80527 0.89924
   6  -2   813767.54  454.38   1 0.00009-0.19758 0.99620 0.84707-0.08709 0.49337
   6   2   814284.29  423.28   1 0.00007-0.04082 0.89362 0.98386-0.44882 0.17417
  -6   2  -814436.50  440.90   1 0.00009 0.19860-0.99611-0.84745 0.08805-0.49231
  -6  -2  -815231.87  449.78   1 0.00007 0.04262-0.89349-0.98384 0.44908-0.17388
  -6  -2  -813728.66  475.51   1-0.30660-0.26385-0.85312-0.94322 0.42210-0.20177
   6  -2  -814649.10  431.24   1-0.58633-0.16889 0.06803-0.39548 0.80720 0.90281
   6  -2   814748.99  478.17   1 0.05104-0.14548 0.99622 0.84742-0.07027 0.51059
   6   2   813714.58  451.59   1-0.20418-0.24472 0.86479 0.95555-0.45873 0.16438
   6  -2  -9 4900.70  236.33   1 0.00008 0.45655 0.56937 0.08539 0.82207 0.88558
   6  -2   9 4709.02  270.04   1 0.00009-0.23558 0.98782 0.85865-0.15556 0.45519
  -6   2  -9 5507.98  303.74   1 0.00009 0.23705-0.98767-0.85875 0.15649-0.45424
  -6  -2  -9 5285.67  277.06   1 0.00007 0.08109-0.87284-0.98290 0.48799-0.16529
  -6  -2  -9 4611.70  285.87   1-0.32110-0.23984-0.83753-0.94735 0.44206-0.21209
   6  -2  -9 5033.28  259.92   1-0.58762-0.13178 0.01594-0.46722 0.80897 0.87426
   6  -2   9 5231.57  288.24   1 0.08829-0.14662 0.98864 0.85950-0.12155 0.48964
   6   2   9 5106.47  272.30   1-0.22643-0.30533 0.83061 0.94116-0.50872 0.14481
   6  -2  10 2290.49  198.75   1 0.00008-0.27396 0.97505 0.86559-0.22195 0.41916
   6   2  10 2160.69  188.14   1 0.00006-0.11758 0.85072 0.98039-0.52560 0.15811
  -6   2 -10 2403.80  207.24   1 0.00008 0.27550-0.97481-0.86562 0.22303-0.41807
  -6  -2 -10 2526.40  215.05   1 0.00006 0.11957-0.85047-0.98023 0.52601-0.15758
  -6  -2 -10 2177.69  205.99   1-0.33551-0.21594-0.82102-0.95069 0.46189-0.22260
   6  -2 -10 2415.07  193.84   1-0.58750-0.09326-0.02569-0.52852 0.80881 0.84377
   6  -2  10 2261.83  196.27   1-0.12472-0.39890 0.95179 0.84280-0.28021 0.36133
   6   2  10 2177.55  187.42   1-0.24847-0.36553 0.79159 0.92232-0.55824 0.12529
   6  -2  11 2560.31  177.61   1 0.00008-0.31234 0.95813 0.86837-0.28630 0.38518
   6   2  11 2552.50  169.46   1 0.00006-0.15596 0.82670 0.97608-0.56263 0.15144
  -6   2 -11 2589.68  178.52   1 0.00008 0.31395-0.95777-0.86833 0.28751-0.38396
  -6  -2 -11 2854.50  187.63   1 0.00006 0.15804-0.82637-0.97584 0.56312-0.15080
  -6  -2 -11 2392.73  191.62   1-0.34953-0.19145-0.80391-0.95329 0.48119-0.23359
   6  -2 -11 2599.56  157.74   1-0.58670-0.05406-0.05816-0.58065 0.80770 0.81235
   6  -2  11 2376.32  165.45   1-0.16485-0.47741 0.91413 0.82530-0.37038 0.30159
   6   2  11 2270.53  164.17   1-0.26983-0.42522 0.74810 0.89865-0.60623 0.10772
   6  -2  12 9237.74  475.23   1 0.00008-0.35072 0.93731 0.86725-0.34848 0.35336
   6   2  12 9541.41  474.06   1 0.00006-0.19433 0.80096 0.97004-0.59871 0.14572
  -6   2 -12 9960.11  510.98   1 0.00008 0.35240-0.93681-0.86711 0.34982-0.35203
  -6  -2 -1210319.55  516.97   1 0.00006 0.19652-0.80054-0.96972 0.59927-0.14496
  -6  -2 -12 8880.23  482.11   1-0.36333-0.16674-0.78599-0.95510 0.50019-0.24488
   6  -2 -12 9579.00  464.30   1-0.58568-0.01464-0.08266-0.62481 0.80630 0.78063
   6   2  12 8916.27  481.01   1-0.29049-0.48420 0.69976 0.87012-0.65264 0.09175
   6  -2  13 3046.00  255.67   1 0.00007-0.38909 0.91278 0.86242-0.40844 0.32376
   6   2  13 3240.97  260.13   1 0.00005-0.23271 0.77347 0.96227-0.63382 0.14096
  -6   2 -13 3433.34  274.51   1 0.00007 0.39118-0.91221-0.86216 0.40971-0.32195
  -6  -2 -13 3450.13  281.91   1 0.00005 0.23499-0.77295-0.96184 0.63446-0.14009
  -6  -2 -13 2947.51  271.98   1-0.37691-0.14182-0.76725-0.95608 0.51889-0.25647
   6   2  13 3118.84  259.12   1-0.31026-0.54231 0.64639 0.83657-0.69707 0.07775
   6  -4   0 6410.67  315.91   1 0.00009 0.03190 0.78855 0.36256 0.61496 0.93141
  -6  -4   0 6819.35  320.43   1 0.00010-0.34401 0.97436 0.92214 0.22497-0.17692
   6   4   0 6370.62  310.12   1 0.00007 0.34441 0.88446 0.93655-0.46661-0.06517
  -6   4   0 6457.87  315.20   1 0.00009-0.03073-0.78825-0.36207-0.61535-0.93164
   6   4   0 6320.65  299.76   1 0.00010 0.34469-0.97397-0.92229-0.22664 0.17482
  -6  -4   0 6582.05  340.18   1 0.00007-0.34328-0.88488-0.93705 0.46580 0.06392
   6  -4   0 7078.26  368.12   1-0.40822-0.37558 0.71938 0.29372 0.56199 0.87901
   6   4   0 5685.95  285.04   1-0.15200 0.19280 0.92750 0.97943-0.34150 0.05940
   6  -4  -1  178.07   79.87   1 0.00009 0.07032 0.74693 0.30123 0.66489 0.95095
   6  -4   1  177.32   84.85   1 0.00010-0.00652 0.82885 0.42257 0.55945 0.90630
  -6  -4   1  202.13   70.66   1 0.00010-0.38244 0.95376 0.92124 0.30053-0.07101
  -6  -4  -1  178.74   70.97   1 0.00010-0.30557 0.98611 0.91420 0.16607-0.26618
   6   4   1  257.20   78.85   1 0.00007 0.30604 0.87916 0.95096-0.47651-0.04471
   6   4  -1  244.66   72.12   1 0.00007 0.38279 0.88699 0.91937-0.46178-0.09070
  -6   4  -1  296.76   93.25   1 0.00010 0.00769-0.82869-0.42232-0.55969-0.90641
   6   4  -1  283.84   71.51   1 0.00010 0.38311-0.95306-0.92117-0.30275 0.06828
   6   4   1  241.89   67.50   1 0.00010 0.30597-0.98597-0.91439-0.16691 0.26506
  -6  -4   1  164.00   80.33   1 0.00007-0.38176-0.88747-0.91993 0.46085 0.08928
  -6  -4  -1  181.30   97.73   1 0.00007-0.30480-0.87954-0.95141 0.47582 0.04362
   6  -4  -1  170.16  107.16   1-0.44843-0.37745 0.64635 0.20097 0.61736 0.90395
   6  -4   1  165.46  100.26   1-0.36384-0.36959 0.78531 0.37930 0.50089 0.84824
  -6  -4  -1  178.37   66.96   1-0.27186-0.57791 0.88657 0.81405 0.37426-0.05770
   6   4  -1  251.85   86.01   1-0.14205 0.24111 0.93699 0.96913-0.31914 0.05133
   6   4   1  214.68   81.20   1-0.16325 0.14319 0.91586 0.98758-0.36678 0.06454
   6  -4  -2 7379.63  391.46   1 0.00009 0.10924 0.70497 0.23945 0.70923 0.96474
   6  -4   2 7281.86  394.23   1 0.00010-0.04494 0.86672 0.48014 0.49879 0.87603
  -6  -4   2 8161.96  440.30   1 0.00010-0.42088 0.91829 0.90546 0.39589 0.05468
  -6  -4  -2 7614.59  400.06   1 0.00010-0.26735 0.99270 0.90088 0.12056-0.34193
   6   4  -2 7721.71  411.86   1 0.00007 0.42116 0.88591 0.89858-0.46384-0.12312
   6   4   2 7817.87  416.60   1 0.00007 0.26766 0.87159 0.96310-0.49023-0.02807
  -6   4  -2 7778.60  415.00   1 0.00010 0.04612-0.86668-0.48011-0.49885-0.87599
   6   4  -2 7677.48  395.33   1 0.00010 0.42153-0.91704-0.90494-0.39877-0.05817
   6   4   2 7816.18  397.15   1 0.00010 0.26754-0.99258-0.90124-0.12151 0.34085
  -6  -4   2 7725.82  426.21   1 0.00007-0.42024-0.88648-0.89924 0.46275 0.12150
  -6  -4  -2 7676.48  429.21   1 0.00007-0.26633-0.87191-0.96350 0.48965 0.02713
  -6  -4  -2 6932.78  434.64   1-0.51531-0.78243-0.48078-0.57209 0.70943 0.24598
   6  -4  -2 8004.78  442.93   1-0.48330-0.37395 0.56894 0.10391 0.66536 0.92160
   6  -4   2 7638.14  433.44   1-0.31657-0.36072 0.84251 0.45615 0.43582 0.81351
  -6  -4  -2 6920.02  371.46   1-0.15762-0.42528 0.96336 0.87117 0.21699-0.24531
   6   4  -2 7132.99  384.14   1-0.13361 0.28791 0.94447 0.95682-0.30018 0.03986
   6   4   2 7136.03  387.81   1-0.17561 0.09247 0.90193 0.99344-0.39455 0.06721
   6  -4  -3  368.07   81.17   1 0.00009 0.14770 0.66404 0.17881 0.74769 0.97273
  -6  -4   3  429.41   93.64   1 0.00010-0.45954 0.85710 0.86425 0.51513 0.20465
   6   4  -3  447.04   83.60   1 0.00007 0.45954 0.87970 0.87266-0.47551-0.16515
   6   4   3  445.70   96.37   1 0.00006 0.22929 0.86203 0.97325-0.50685-0.01433
  -6   4   3  439.45   89.18   1 0.00009-0.14596-0.66353-0.17792-0.74814-0.97315
  -6   4  -3  480.93  101.47   1 0.00010 0.08445-0.90112-0.53429-0.43356-0.84106
  -6  -4   3  426.49  101.60   1 0.00007-0.45872-0.88040-0.87344 0.47422 0.16329
  -6  -4  -3  375.85  105.23   1 0.00006-0.22785-0.86231-0.97360 0.50637 0.01354
  -6  -4  -3  388.44  107.09   1-0.48238-0.71102-0.57120-0.68223 0.66409 0.17031
   6  -4  -3  408.71  106.70   1-0.51229-0.36456 0.49004 0.00535 0.70526 0.93116
   6  -4   3  407.34  114.89   1-0.26777-0.35032 0.89016 0.52347 0.36864 0.77668
  -6  -4  -3  359.19   69.09   1-0.09708-0.32636 0.98626 0.87442 0.13366-0.35898
   6   4  -3  410.91   99.43   1-0.12698 0.33300 0.94998 0.94261-0.28529 0.02435
   6   4   3  425.89   92.89   1-0.18889 0.04083 0.88556 0.99686-0.42437 0.06781
   6  -4  -4 4538.25  210.15   1 0.00008 0.18615 0.62506 0.12011 0.78057 0.97514
  -6  -4   4 5077.56  261.35   1 0.00009-0.49798 0.75444 0.78130 0.65636 0.37627
   6   4  -4 4538.42  222.28   1 0.00006 0.49791 0.86526 0.83850-0.50132-0.22131
   6   4   4 4635.86  228.85   1 0.00006 0.19091 0.85067 0.98160-0.52569-0.00282
  -6   4  -4 4534.52  229.23   1 0.00010 0.12287-0.93128-0.58425-0.36428-0.80221
  -6  -4   4 4742.82  257.17   1 0.00007-0.49720-0.86616-0.83950 0.49975 0.21913
  -6  -4  -4 4832.12  245.52   1 0.00006-0.18937-0.85090-0.98190 0.52531 0.00216
  -6  -4  -4 4285.06  261.29   1-0.46111-0.65126-0.61998-0.75072 0.63481 0.11070
   6  -4  -4 5008.87  262.73   1-0.53530-0.34925 0.41274-0.09160 0.73694 0.93253
   6  -4   4 4873.32  265.91   1-0.21876-0.33969 0.92813 0.58110 0.30116 0.73954
  -6  -4  -4 4292.64  203.75   1-0.06211-0.25300 0.99439 0.86290 0.08551-0.43746
   6   4  -4 4226.21  215.71   1-0.12227 0.37608 0.95372 0.92657-0.27470 0.00451
   6   4   4 4366.69  229.73   1-0.20290-0.01153 0.86661 0.99770-0.45585 0.06675
  -6  -4   5  256.94   96.65   1 0.00008-0.53693 0.57874 0.62524 0.81550 0.56636
   6  -4  -5  202.65   73.32   1 0.00008 0.22461 0.58888 0.06421 0.80821 0.97232
   6  -4   5  227.28   96.03   1 0.00010-0.16045 0.95617 0.62859 0.29277 0.76100
   6   4   5  267.51   92.57   1 0.00006 0.15254 0.83763 0.98827-0.54623 0.00699
  -6   4  -5  269.12   95.18   1 0.00010 0.16129-0.95642-0.62918-0.29197-0.76033
  -6  -4   5  224.16   89.57   1 0.00006-0.53568-0.83669-0.79032 0.54767 0.29737
  -6  -4  -5  213.25   97.18   1 0.00006-0.15090-0.83781-0.98852 0.54595-0.00751
  -6  -4  -5  202.79  102.99   1-0.44757-0.59864-0.64807-0.79863 0.61617 0.06167
   6  -4  -5  218.40   99.03   1-0.55282-0.32840 0.33935-0.18465 0.76106 0.92631
   6  -4   5  231.64  106.70   1-0.17049-0.32981 0.95699 0.62961 0.23471 0.70342
  -6  -4  -5  200.76   64.50   1-0.04163-0.19413 0.99748 0.84634 0.05731-0.49599
   6   4  -5  238.59   78.88   1-0.11978 0.41692 0.95562 0.90871-0.26912-0.02034
  -6  -4   6 6563.58  310.62   1 0.00005-0.57538 0.28085 0.34647 0.95975 0.74086
   6  -4  -6 6035.54  233.89   1 0.00008 0.26306 0.55618 0.01180 0.83105 0.96470
   6  -4   6 5746.67  265.80   1 0.00010-0.19889 0.97581 0.66792 0.21858 0.71715
   6   4   6 6324.31  255.19   1 0.00006 0.11416 0.82298 0.99334-0.56805 0.01553
  -6   4  -6 5934.10  259.35   1 0.00010 0.20001-0.97594-0.66834-0.21803-0.71645
  -6  -4  -6 5981.90  295.92   1-0.44000-0.55255-0.66292-0.83321 0.60574 0.02095
   6  -4  -6 6853.95  295.45   1-0.56555-0.30275 0.27190-0.27176 0.77859 0.91349
   6  -4   6 6591.45  294.40   1-0.12367-0.32139 0.97760 0.66987 0.17026 0.66931
  -6  -4  -6 5887.15  221.50   1-0.03024-0.14435 0.99867 0.82787 0.04163-0.54201
   6   4  -6 5601.42  236.57   1-0.11983 0.45524 0.95559 0.88890-0.26921-0.05087
   6   4   6 5688.34  249.15   1-0.23246-0.11781 0.82048 0.99114-0.52227 0.06120
   6  -4  -7   68.70   72.47   1 0.00008 0.30151 0.52746-0.03662 0.84957 0.95275
   6  -4   7   82.34   88.60   1 0.00010-0.23737 0.98963 0.70114 0.14361 0.67234
   6   4   7   87.19   88.45   1 0.00006 0.07578 0.80679 0.99685-0.59083 0.02312
  -6   4  -7   80.32   94.57   1 0.00010 0.23844-0.98983-0.70200-0.14224-0.67106
  -6  -4  -7   62.41   97.69   1-0.43640-0.51044-0.66978-0.85979 0.60078-0.01429
   6  -4  -7   66.67   87.39   1-0.57439-0.27322 0.21155-0.35177 0.79076 0.89532
   6  -4   7   36.42  109.55   1-0.07875-0.31485 0.99098 0.70289 0.10842 0.63780
   6   4  -7   94.92   69.23   1-0.12275 0.49068 0.95334 0.86689-0.27579-0.08789
   6   4   7   88.77   96.90   1-0.24779-0.17135 0.79288 0.98357-0.55671 0.05667
   6  -4  -8 2139.96  151.53   1 0.00007 0.34033 0.50360-0.07994 0.86393 0.93690
   6  -4   8 2115.05  179.83   1 0.00010-0.27579 0.99771 0.72891 0.06750 0.62659
   6   4   8 2207.52  183.77   1 0.00005 0.03740 0.78907 0.99884-0.61429 0.03001
  -6   4  -8 2147.64  175.25   1 0.00010 0.27687-0.99782-0.72977-0.06589-0.62511
  -6  -4  -8 2415.72  197.92   1 0.00005-0.03547-0.78907-0.99891 0.61429-0.03011
  -6  -4  -8 2190.93  194.18   1-0.43570-0.47123-0.67109-0.88082 0.59982-0.04554
   6  -4  -8 2402.29  185.90   1-0.58020-0.24076 0.15917-0.42390 0.79876 0.87312
   6  -4   8 2375.37  199.95   1-0.03596-0.31045 0.99812 0.72969 0.04951 0.60922
   6   4   8 2041.98  172.79   1-0.26312-0.22502 0.76242 0.97293-0.59116 0.05265
   6  -4  -9  437.84   85.07   1 0.00007 0.37881 0.48375-0.11948 0.87520 0.91772
   6  -4   9  444.25  120.63   1 0.00009-0.31421 0.99996 0.75084-0.00848 0.58094
   6   4   9  583.54  112.26   1 0.00005-0.00096 0.76985 0.99933-0.63822 0.03644
  -6   4  -9  561.57  119.76   1 0.00009 0.31530-0.99994-0.75167 0.01032-0.57928
  -6  -4  -9  532.82  118.41   1 0.00005 0.00300-0.76978-0.99933 0.63830-0.03642
  -6  -4  -9  453.83  127.73   1-0.43716-0.43419-0.66833-0.89779 0.60184-0.07381
   6  -4  -9  518.11  115.77   1-0.58386-0.20601 0.11412-0.48861 0.80379 0.84782
   6  -4   9  493.01  154.47   1 0.00462-0.30825 0.99996 0.75119-0.00636 0.58368
   6   4   9  525.27  115.62   1-0.27842-0.27864 0.72883 0.95915-0.62552 0.04872
   6  -4 -10 4033.55  167.33   1 0.00007 0.41730 0.46849-0.15445 0.88346 0.89554
   6  -4  10 3882.62  217.21   1 0.00009-0.35263 0.99648 0.76704-0.08379 0.53599
   6   4  10 4010.77  222.43   1 0.00005-0.03929 0.74921 0.99831-0.66232 0.04277
  -6   4 -10 4116.93  216.24   1 0.00009 0.35378-0.99635-0.76765 0.08532-0.53435
  -6  -4 -10 4315.13  225.17   1 0.00005 0.04147-0.74898-0.99823 0.66258-0.04245
  -6  -4 -10 3986.45  240.60   1-0.44026-0.39878-0.66241-0.91159 0.60610-0.09983
   6  -4 -10 4176.49  214.44   1-0.58598-0.16973 0.07642-0.54597 0.80671 0.82042
   6  -4  10 4282.99  222.91   1 0.04303-0.30823 0.99731 0.76819-0.05925 0.56113
   6   4  10 3666.30  204.86   1-0.29354-0.33209 0.69202 0.94216-0.65949 0.04518
   6  -4 -11  108.45   80.39   1 0.00007 0.45578 0.45780-0.18483 0.88905 0.87068
   6  -4  11  107.68  117.64   1 0.00009-0.39057 0.98740 0.77809-0.15822 0.49195
  -6   4 -11  125.47   99.76   1 0.00009 0.39223-0.98717-0.77821 0.15962-0.49043
  -6  -4 -11  108.93  111.27   1 0.00005 0.07995-0.72666-0.99562 0.68699-0.04836
  -6  -4 -11  120.64  108.87   1-0.44462-0.36462-0.65394-0.92284 0.61210-0.12413
   6  -4 -11  110.33   93.32   1-0.58709-0.13244 0.04558-0.59647 0.80823 0.79163
   6  -4  11  105.73   97.71   1 0.07936-0.31029 0.99084 0.78136-0.10926 0.54145
   6   4  11   90.73  104.07   1-0.30836-0.38523 0.65189 0.92184-0.69278 0.04232
   6  -4  12 2552.50  233.56   1 0.00008-0.42895 0.97300 0.78340-0.23078 0.44975
   6   4  12 2466.94  222.62   1 0.00004-0.11604 0.70320 0.99172-0.71098 0.05483
  -6   4 -12 2731.10  239.70   1 0.00008 0.43068-0.97263-0.78341 0.23235-0.44807
  -6  -4 -12 2696.33  232.15   1 0.00004 0.11842-0.70281-0.99147 0.71137-0.05430
  -6  -4 -12 2564.45  257.11   1-0.44994-0.33143-0.64331-0.93194 0.61943-0.14709
   6  -4 -12 2541.03  210.74   1-0.58757-0.09452 0.02104-0.64067 0.80889 0.76197
   6   4  12 2376.54  225.19   1-0.32274-0.43795 0.60832 0.89808-0.72510 0.04042
   6  -6   0  316.12   95.52   1 0.00009-0.04578 0.72639 0.18076 0.68728 0.98246
  -6  -6   0  227.62   67.21   1 0.00010-0.42240 0.99868 0.82656 0.05119-0.37198
   6   6   0  399.86   86.92   1 0.00004 0.42266 0.68006 0.85147-0.73315-0.31039
  -6   6   0  399.66  103.31   1 0.00009 0.04769-0.72626-0.18062-0.68741-0.98239
  -6  -6   0  214.56   92.67   1 0.00004-0.42139-0.68093-0.85259 0.73234 0.30903
   6  -6   0  244.56  122.51   1-0.41848-0.46386 0.70210 0.15679 0.57612 0.87191
  -6  -6   0  229.10   91.03   1-0.36482-0.78727 0.78399 0.61146 0.50225 0.07939
  -6  -6   0  231.70   76.15   1-0.18860-0.61105 0.94710 0.77457 0.25965-0.16320
   6   6   0  386.52  104.18   1-0.24154 0.18170 0.80447 0.97586-0.54266-0.12113
   6  -6  -1 8038.34  284.76   1 0.00009-0.00733 0.68557 0.12022 0.72800 0.99271
  -6  -6   1 8261.41  282.10   1 0.00010-0.46082 0.99386 0.84142 0.11059-0.28223
   6   6   1 8396.90  311.65   1 0.00004 0.38429 0.69212 0.88325-0.72177-0.26864
   6   6  -1 8672.01  322.01   1 0.00004 0.46103 0.65980 0.81150-0.75143-0.35903
  -6   6   1 8083.45  293.26   1 0.00009 0.00933-0.68537-0.11992-0.72819-0.99273
  -6   6  -1 8060.90  289.44   1 0.00009 0.08612-0.76741-0.24158-0.64114-0.96655
  -6  -6  -1 8239.04  317.32   1 0.00004-0.38291-0.69284-0.88421 0.72108 0.26745
  -6  -6   1 8304.88  325.96   1 0.00004-0.45987-0.66087-0.81284 0.75049 0.35749
   6  -6  -1 9166.56  384.33   1-0.45062-0.45762 0.64194 0.07697 0.62036 0.88580
   6  -6   1 9031.81  363.18   1-0.38283-0.46654 0.75872 0.23308 0.52704 0.85323
  -6  -6  -1 7303.29  255.37   1-0.01138-0.39540 0.99981 0.80764 0.01567-0.43745
   6   6  -1 7811.95  296.16   1-0.23699 0.22463 0.81260 0.96422-0.53245-0.14076
   6   6   1 8010.77  311.99   1-0.24728 0.13763 0.79384 0.98504-0.55557-0.10361
   6  -6  -215608.52  421.93   1 0.00008 0.03112 0.64591 0.06085 0.76341 0.99766
  -6  -6   216749.79  447.62   1 0.00010-0.49901 0.98171 0.84931 0.19035-0.17219
   6   6   217003.47  488.98   1 0.00004 0.34592 0.69816 0.90901-0.71593-0.23244
  -6   6  -216611.33  467.64   1 0.00009 0.12454-0.80787-0.30183-0.58935-0.94519
  -6  -6  -216793.56  485.66   1 0.00004-0.34443-0.69876-0.90984 0.71535 0.23140
  -6  -6   216290.06  481.54   1 0.00003-0.49835-0.62915-0.76141 0.77728 0.41460
  -6  -6  -213603.34  763.17   1-0.58692-0.93235 0.05128-0.16006 0.80801 0.32418
   6  -6   217862.20  567.81   1-0.34431-0.46640 0.81040 0.30441 0.47401 0.83054
  -6  -6  -214709.75  402.16   1 0.03854-0.30707 0.99784 0.78602-0.05306-0.53652
   6   6  -216396.24  515.96   1-0.23389 0.26609 0.81802 0.94985-0.52548-0.16422
   6   6   216141.31  475.25   1-0.25408 0.09250 0.78075 0.99177-0.57084-0.08845
   6  -6  -3 6212.04  247.29   1 0.00008 0.06957 0.60819 0.00342 0.79378 0.99757
   6  -6   3 6099.07  259.02   1 0.00010-0.16151 0.84642 0.36006 0.53250 0.91883
  -6  -6   3 6803.89  258.98   1 0.00010-0.53744 0.95522 0.84251 0.29588-0.03632
   6   6   3 6597.10  270.78   1 0.00004 0.30755 0.69955 0.93011-0.71457-0.20072
  -6   6  -3 6249.61  257.64   1 0.00010 0.16297-0.84661-0.36038-0.53219-0.91845
  -6  -6  -3 6438.34  285.22   1 0.00004-0.30595-0.70005-0.93083 0.71409 0.19983
  -6  -6   3 6611.35  284.91   1 0.00003-0.53684-0.57943-0.69198 0.81501 0.48265
  -6  -6  -3 5594.54  292.84   1-0.58333-0.89031-0.12163-0.35241 0.80307 0.28833
   6  -6  -3 7001.88  300.76   1-0.50292-0.43318 0.51738-0.08689 0.69236 0.89710
   6  -6   3 6803.46  323.96   1-0.30362-0.46410 0.85620 0.36986 0.41799 0.80486
  -6  -6  -3 5781.77  216.58   1 0.06062-0.24660 0.99466 0.76319-0.08345-0.59725
   6   6  -3 6422.99  265.98   1-0.23240 0.30595 0.82058 0.93263-0.52213-0.19129
   6   6   3 6138.47  263.76   1-0.26177 0.04648 0.76523 0.99607-0.58811-0.07530
   6  -6  -4  775.37  106.03   1 0.00008 0.10803 0.57308-0.05140 0.81949 0.99281
   6  -6   4  809.56  126.63   1 0.00010-0.19994 0.88239 0.41575 0.47049 0.88722
   6   6   4  930.93  119.50   1 0.00004 0.26918 0.69720 0.94748-0.71686-0.17264
  -6   6  -4  871.21  124.37   1 0.00010 0.20129-0.88258-0.41608-0.47014-0.88676
  -6  -6  -4  876.36  135.73   1 0.00004-0.26747-0.69761-0.94810 0.71647 0.17189
  -6  -6   4  841.73  119.83   1 0.00002-0.57533-0.49898-0.59182 0.86661 0.56456
  -6  -6  -4  729.67  130.94   1-0.57105-0.83959-0.23632-0.48678 0.78616 0.24109
   6  -6  -4  885.81  137.44   1-0.52292-0.41486 0.45640-0.16752 0.71989 0.89432
   6  -6   4  862.54  159.61   1-0.26150-0.46039 0.89555 0.42888 0.36000 0.77723
  -6  -6  -4  747.53   83.12   1 0.07001-0.19882 0.99287 0.74175-0.09638-0.64051
   6   6  -4  866.98  114.56   1-0.23275 0.34395 0.81998 0.91223-0.52292-0.22251
   6   6   4  852.58  132.10   1-0.27020-0.00027 0.74730 0.99796-0.60705-0.06381
   6  -6  -5 6058.67  296.10   1 0.00008 0.14648 0.54108-0.10312 0.84096 0.98382
   6  -6   5 5845.14  315.29   1 0.00010-0.23858 0.91460 0.46745 0.40435 0.85121
   6   6   5 6971.52  346.59   1 0.00004 0.23081 0.69174 0.96174-0.72213-0.14755
  -6   6  -5 6636.12  335.87   1 0.00010 0.23971-0.91503-0.46832-0.40336-0.85041
  -6  -6  -5 6678.80  349.13   1 0.00004-0.22899-0.69207-0.96227 0.72182 0.14692
  -6  -6  -5 6156.19  359.46   1-0.55783-0.78793-0.31473-0.58488 0.76796 0.19255
   6  -6  -5 6959.32  373.48   1-0.53912-0.39269 0.39808-0.24550 0.74220 0.88629
   6  -6   5 7077.73  390.87   1-0.21874-0.45602 0.92815 0.48113 0.30113 0.74870
  -6  -6  -5 5918.47  281.72   1 0.07226-0.15818 0.99241 0.72163-0.09949-0.67395
   6   6  -5 6936.52  358.63   1-0.23521 0.37986 0.81573 0.88820-0.52843-0.25845
   6   6   5 6517.58  339.54   1-0.27923-0.04763 0.72695 0.99742-0.62734-0.05367
   6  -6  -6 9812.51  431.96   1 0.00007 0.18532 0.51292-0.15086 0.85843 0.97102
   6  -6   6 9037.33  440.23   1 0.00010-0.27702 0.94261 0.51515 0.33388 0.81109
   6   6   611033.48  507.13   1 0.00004 0.19244 0.68361 0.97332-0.72984-0.12489
  -6   6  -610536.25  484.55   1 0.00010 0.27813-0.94306-0.51614-0.33260-0.81008
  -6  -6  -610458.01  496.41   1 0.00004-0.19052-0.68386-0.97377 0.72960 0.12439
  -6  -6  -6 9763.72  499.12   1-0.54620-0.73786-0.36909-0.65892 0.75195 0.14621
   6  -6  -610913.24  509.21   1-0.55190-0.36710 0.34364-0.31960 0.75980 0.87354
   6  -6   611075.72  546.03   1-0.17593-0.45161 0.95413 0.52677 0.24221 0.72011
   6  -6  -7 6171.25  336.60   1 0.00007 0.22380 0.48822-0.19526 0.87272 0.95487
   6  -6   7 5619.18  348.48   1 0.00010-0.31545 0.96557 0.55781 0.26011 0.76768
   6   6   7 6765.48  392.72   1 0.00004 0.15406 0.67312 0.98254-0.73953-0.10421
  -6   6  -7 6415.25  375.33   1 0.00010 0.31655-0.96599-0.55886-0.25854-0.76645
  -6  -6  -7 6429.30  377.58   1 0.00004-0.15204-0.67329-0.98290 0.73937 0.10384
  -6  -6  -7 6110.88  391.47   1-0.53667-0.68952-0.40755-0.71699 0.73883 0.10230
   6  -6  -7 7145.65  422.44   1-0.56175-0.33856 0.29387-0.38903 0.77335 0.85675
   6  -6   7 7050.32  435.14   1-0.13361-0.44767 0.97381 0.56609 0.18395 0.69218
   6   6   7 5835.79  352.85   1-0.29857-0.14363 0.67886 0.98896-0.67081-0.03628
   6  -6  -8  475.34   89.87   1 0.00007 0.26229 0.46741-0.23576 0.88403 0.93574
   6  -6   8  479.98  128.17   1 0.00010-0.35389 0.98296 0.59489 0.18379 0.72171
   6   6   8  614.58  117.90   1 0.00004 0.11569 0.66048 0.98962-0.75084-0.08516
  -6   6  -8  621.08  123.39   1 0.00010 0.35528-0.98319-0.59563-0.18258-0.72041
  -6  -6  -8  476.52  118.81   1 0.00004-0.11356-0.66057-0.98989 0.75075 0.08491
  -6  -6  -8  447.39  129.35   1-0.52966-0.64403-0.43329-0.76244 0.72918 0.06232
   6  -6  -8  524.33  133.98   1-0.56915-0.30759 0.24925-0.45332 0.78354 0.83659
   6  -6   8  584.56  159.20   1-0.09217-0.44462 0.98762 0.59956 0.12689 0.66545
   6   6   8  563.60  124.08   1-0.30864-0.19203 0.65106 0.98097-0.69343-0.02847
   6  -6  -9 3240.05  195.60   1 0.00007 0.30077 0.45058-0.27229 0.89273 0.91399
   6  -6   9 2999.33  231.41   1 0.00010-0.39241 0.99433 0.62553 0.10626 0.67432
   6   6   9 3292.23  215.36   1 0.00003 0.07732 0.64586 0.99472-0.76345-0.06740
  -6   6  -9 3458.35  236.00   1 0.00010 0.39371-0.99455-0.62677-0.10418-0.67241
  -6  -6  -9 3139.97  253.48   1-0.52476-0.60065-0.45024-0.79911 0.72242 0.02524
   6  -6  -9 3522.58  244.26   1-0.57459-0.27465 0.20999-0.51223 0.79103 0.81374
   6  -6   9 3573.46  283.06   1-0.05187-0.44271 0.99609 0.62768 0.07141 0.64032
   6   6   9 2944.02  219.68   1-0.31883-0.24054 0.62068 0.97041-0.71630-0.02092
   6  -6 -10 7974.44  490.69   1 0.00007 0.33926 0.43773-0.30484 0.89910 0.88992
   6  -6  10 7690.15  516.22   1 0.00010-0.43083 0.99963 0.65051 0.02705 0.62546
   6   6  10 8755.37  571.04   1 0.00003 0.03895 0.62937 0.99795-0.77709-0.05069
  -6   6 -10 9033.20  582.23   1 0.00010 0.43214-0.99969-0.65168-0.02472-0.62335
  -6  -6 -10 8949.41  576.27   1 0.00003-0.03661-0.62931-0.99804 0.77714 0.05067
  -6  -6 -10 7990.80  545.68   1-0.52168-0.55910-0.46047-0.82904 0.71819-0.00931
   6  -6 -10 8806.19  558.28   1-0.57849-0.24024 0.17630-0.56566 0.79640 0.78886
   6  -6  10 9012.58  586.99   1-0.01291-0.44214 0.99975 0.65100 0.01777 0.61701
   6   6  10 7514.21  507.79   1-0.32901-0.28905 0.58767 0.95722-0.73917-0.01336
   6  -6 -11 4245.00  179.68   1 0.00007 0.37774 0.42880-0.33346 0.90339 0.86377
   6  -6  11 4208.89  241.29   1 0.00009-0.46926 0.99861 0.66918-0.05257 0.57618
   6   6  11 4667.07  234.39   1 0.00003 0.00057 0.61110 0.99939-0.79155-0.03477
  -6  -6 -11 4547.75  226.92   1 0.00003 0.00186-0.61095-0.99939 0.79166 0.03486
  -6  -6 -11 4283.66  262.36   1-0.52017-0.51911-0.46539-0.85368 0.71611-0.04173
   6  -6 -11 4612.08  228.47   1-0.58125-0.20460 0.14766-0.61396 0.80021 0.76235
   6  -6  11 4684.80  251.95   1 0.02462-0.44299 0.99912 0.67001-0.03389 0.59567
   6   6  11 4095.47  235.43   1-0.33908-0.33745 0.55196 0.94132-0.76180-0.00556
   6  -8   0 2357.26  184.36   1 0.00009-0.12391 0.69616 0.03098 0.71788 0.99180
  -6   8   0 2471.33  190.28   1 0.00009 0.12620-0.69618-0.03108-0.71786-0.99151
  -6  -8   0 2535.43  211.48   1 0.00001-0.49949-0.45024-0.74138 0.89290 0.44815
   6  -8   0 3032.89  264.42   1-0.41273-0.53600 0.71188 0.04696 0.56820 0.84290
   6   8   0 2437.89  200.80   1-0.30590 0.19584 0.65883 0.94963-0.68727-0.24460
   6  -8   1 1237.39  132.65   1 0.00009-0.16281 0.73473 0.08946 0.67835 0.98259
   6   8   1 1156.86  129.83   1 0.00001 0.46253 0.47887 0.78949-0.87788-0.40344
  -6   8   1 1053.48  120.27   1 0.00008 0.08777-0.65852 0.02638-0.75256-0.99579
  -6   8  -1 1107.38  132.58   1 0.00009 0.16455-0.73488-0.08957-0.67819-0.98229
  -6  -8   1 1312.86  139.09   1 0.00001-0.53798-0.40842-0.67986 0.91279 0.49835
   6  -8  -1 1462.31  179.48   1-0.44039-0.52539 0.66217-0.02237 0.60628 0.85056
   6  -8   1 1526.21  189.82   1-0.38227-0.54393 0.75953 0.11426 0.52627 0.83131
   6   8  -1 1143.15  135.15   1-0.30479 0.23528 0.66194 0.93293-0.68477-0.27253
   6   8   1 1072.28  117.01   1-0.30809 0.15533 0.65264 0.96325-0.69219-0.21909
   6  -8  -2  993.06  125.46   1 0.00008-0.04700 0.62261-0.08198 0.78253 0.99552
   6  -8   2 1043.83  125.85   1 0.00009-0.20123 0.77361 0.14805 0.63365 0.96828
   6   8   2 1289.60  128.13   1 0.00002 0.42416 0.50012 0.83045-0.86595-0.36114
  -6   8  -2 1165.59  129.43   1 0.00009 0.20297-0.77386-0.14835-0.63335-0.96787
  -6  -8  -2 1120.98  141.67   1 0.00002-0.42253-0.50126-0.83182 0.86529 0.35991
  -6  -8   2 1092.88  131.45   1 0.00000-0.57646-0.35025-0.60198 0.93665 0.55253
   6  -8  -2 1293.70  165.62   1-0.46504-0.51167 0.61143-0.09277 0.64022 0.85415
   6  -8   2 1302.33  185.56   1-0.34932-0.54936 0.80417 0.17855 0.48091 0.81628
   6   8  -2 1225.16  130.71   1-0.30489 0.27351 0.66166 0.91283-0.68500-0.30319
   6   8   2 1166.03  146.85   1-0.31122 0.11387 0.64360 0.97403-0.69922-0.19569
   6  -8  -3 1460.44  137.35   1 0.00008-0.00854 0.58888-0.13543 0.80822 0.99074
   6  -8   3 1454.32  143.21   1 0.00009-0.23966 0.81197 0.20612 0.58369 0.94872
   6   8   3 1591.22  143.49   1 0.00002 0.38579 0.51437 0.86442-0.85756-0.32239
  -6   8  -3 1468.33  141.35   1 0.00009 0.24140-0.81230-0.20660-0.58322-0.94817
  -6  -8  -3 1535.06  149.86   1 0.00002-0.38405-0.51534-0.86561 0.85698 0.32128
   6  -8  -3 1736.28  183.09   1-0.48662-0.49487 0.56071-0.16315 0.66992 0.85351
   6  -8   3 1759.37  192.42   1-0.31427-0.55270 0.84501 0.23903 0.43265 0.79835
   6   8  -3 1545.32  145.15   1-0.30636 0.31037 0.65755 0.88890-0.68830-0.33692
   6   8   3 1475.48  148.25   1-0.31517 0.07159 0.63187 0.98211-0.70809-0.17414
   6  -8  -4 2911.06  170.48   1 0.00008 0.02990 0.55778-0.18624 0.82998 0.98204
   6  -8   4 2794.24  180.15   1 0.00010-0.27808 0.84894 0.26280 0.52848 0.92390
   6   8   4 2866.32  180.67   1 0.00002 0.34742 0.52301 0.89277-0.85232-0.28679
  -6   8  -4 2642.53  168.34   1 0.00010 0.27983-0.84935-0.26345-0.52781-0.92319
  -6  -8  -4 2958.50  190.87   1 0.00002-0.34557-0.52384-0.89381 0.85181 0.28579
   6  -8  -4 3308.69  218.76   1-0.50516-0.47504 0.51102-0.23250 0.69545 0.84868
   6  -8   4 3439.67  248.38   1-0.27757-0.55439 0.88143 0.29510 0.38213 0.77817
   6   8   4 2579.21  178.57   1-0.31982 0.02861 0.61757 0.98763-0.71854-0.15416
   6  -8  -5 1140.61  127.77   1 0.00008 0.06836 0.52966-0.23408 0.84820 0.96980
   6  -8   5 1093.29  140.69   1 0.00010-0.31651 0.88364 0.31721 0.46815 0.89397
   6   8   5 1107.58  129.70   1 0.00002 0.30905 0.52703 0.91651-0.84984-0.25394
  -6   8  -5 1057.67  126.93   1 0.00010 0.31813-0.88402-0.31783-0.46744-0.89317
  -6  -8  -5 1188.15  140.23   1 0.00002-0.30709-0.52774-0.91741 0.84940 0.25307
   6  -8  -5 1301.31  163.40   1-0.52081-0.45237 0.46333-0.29982 0.71699 0.83991
   6  -8   5 1345.14  212.59   1-0.23966-0.55490 0.91307 0.34642 0.32994 0.75635
   6   8   5  993.44  143.36   1-0.32507-0.01495 0.60079 0.99066-0.73032-0.13551
   6  -8  -6 1182.23  128.22   1 0.00007 0.10728 0.50501-0.27841 0.86311 0.95444
   6  -8   6 1126.01  143.89   1 0.00010-0.35514 0.91498 0.36795 0.40349 0.85934
   6   8   6 1288.43  148.69   1 0.00002 0.27068 0.52717 0.93636-0.84975-0.22349
  -6   8  -6 1287.57  158.26   1 0.00010 0.35655-0.91561-0.36922-0.40205-0.85822
  -6  -8  -6 1272.10  150.67   1 0.00002-0.26861-0.52776-0.93713 0.84939 0.22274
  -6  -8  -6 1013.01  162.56   1-0.58603-0.85585-0.07515-0.48471 0.80678 0.18043
   6  -8  -6 1368.85  171.66   1-0.53382-0.42701 0.41824-0.36457 0.73491 0.82749
   6  -8   6 1443.39  215.69   1-0.20107-0.55470 0.93964 0.39264 0.27682 0.73357
   6   8   6 1147.61  155.74   1-0.33079-0.05901 0.58157 0.99126-0.74319-0.11795
   6  -8  -7  605.74  112.10   1 0.00007 0.14577 0.48347-0.31965 0.87535 0.93625
   6  -8   7  603.95  140.72   1 0.00010-0.39358 0.94259 0.41525 0.33395 0.82015
   6   8   7  571.19  126.11   1 0.00002 0.23230 0.52395 0.95287-0.85174-0.19511
  -6   8  -7  555.72  123.68   1 0.00010 0.39497-0.94320-0.41660-0.33220-0.81879
  -6  -8  -7  570.42  131.34   1 0.00002-0.23013-0.52444-0.95352 0.85144 0.19448
  -6  -8  -7  553.71  133.85   1-0.58240-0.81369-0.13398-0.56307 0.80178 0.14435
   6  -8  -7  648.05  140.22   1-0.54447-0.39928 0.37641-0.42607 0.74957 0.81180
   6  -8   7  718.58  191.98   1-0.16220-0.55421 0.96115 0.43381 0.22330 0.71038
   6  -8  -8 1806.82  126.54   1 0.00007 0.18425 0.46536-0.35746 0.88512 0.91557
   6  -8   8 1663.17  172.71   1 0.00010-0.43201 0.96548 0.45784 0.26045 0.77700
   6   8   8 1887.80  164.26   1 0.00002 0.19393 0.51780 0.96643-0.85549-0.16850
  -6   8  -8 1854.69  164.22   1 0.00010 0.43340-0.96604-0.45922-0.25839-0.77541
  -6  -8  -8 1895.06  171.43   1 0.00002-0.19166-0.51818-0.96697 0.85526 0.16798
  -6  -8  -8 1692.74  179.74   1-0.57824-0.77109-0.17865-0.62743 0.79606 0.10830
   6  -8  -8 2034.60  188.71   1-0.55306-0.36949 0.33823-0.48391 0.76139 0.79328
   6  -8   8 2013.52  221.78   1-0.12340-0.55380 0.97770 0.47001 0.16988 0.68730
   6 -10   0  938.08  140.67   1 0.00009-0.20203 0.69160-0.09310 0.72227 0.97494
  -6  10   0  900.05  134.79   1 0.00009 0.20465-0.69180 0.09275-0.72208-0.97443
   6 -10   0 1190.71  196.52   1-0.39693-0.59815 0.73744-0.04710 0.54645 0.79999
   6  10   0  846.78  139.54   1-0.35032 0.22994 0.50774 0.91795-0.78706-0.32325
   6 -10  -1 4073.82  192.62   1 0.00008-0.16357 0.65762-0.14680 0.75334 0.97554
   6 -10   1 4105.96  202.31   1 0.00009-0.24048 0.72687-0.03812 0.68677 0.96990
  -6  10   1 4124.27  198.15   1 0.00008 0.16622-0.65777 0.14658-0.75321-0.97513
  -6  10  -1 4119.73  200.59   1 0.00009 0.24298-0.72711 0.03764-0.68651-0.96929
  -6 -10  -1 4464.47  242.60   1-0.00000-0.53911-0.27124-0.70156 0.96251 0.46601
   6 -10  -1 5281.76  278.44   1-0.42187-0.58486 0.69621-0.10792 0.58078 0.80391
   6 -10   1 5366.93  295.59   1-0.36970-0.60930 0.77735 0.01244 0.50896 0.79283
   6  10   1 4063.97  226.12   1-0.35059 0.19134 0.50661 0.93663-0.78767-0.29343
   6  10  -1 4102.81  209.95   1-0.35089 0.26769 0.50534 0.89573-0.78835-0.35497
   6 -10  -2 6020.46  222.72   1 0.00008-0.12512 0.62541-0.19873 0.78029 0.97203
   6 -10   2 6315.38  244.20   1 0.00009-0.27937 0.76275 0.01769 0.64668 0.96001
  -6  10  -2 6650.22  256.67   1 0.00009 0.28141-0.76316-0.01820-0.64620-0.95941
  -6 -10  -2 6750.73  285.64   1-0.00000-0.50063-0.30356-0.75358 0.95281 0.42599
   6  10   2 6484.44  282.53   1-0.35162 0.15198 0.50227 0.95210-0.78998-0.26532
  -7  -1   014026.15  577.81   1 0.00009-0.25840 0.79001 0.94844 0.61308 0.18353
   7  -1   012756.00  523.38   1 0.00010 0.18021 0.95116 0.67331 0.30868 0.71705
   7   1   012541.78  517.89   1 0.00010 0.25839 0.99892 0.84070 0.04630 0.47587
   7   1   012498.65  507.26   1 0.00009 0.25829-0.78962-0.94834-0.61359-0.18421
  -7   1   012479.39  521.85   1 0.00010-0.17973-0.95077-0.67257-0.30988-0.71787
  -7  -1   012755.24  538.78   1 0.00010-0.25783-0.99885-0.84019-0.04777-0.47707
  -7   1   012425.20  570.77   1-0.56456-0.74551 0.27784 0.55527 0.77722 0.36862
  -7  -1   013186.21  604.90   1-0.55992-0.81886 0.30379 0.46164 0.77083 0.34108
   7  -1   013815.70  583.39   1-0.27784-0.09686 0.88118 0.60390 0.38251 0.79114
   7   1   012458.70  511.30   1-0.05590 0.20303 0.99546 0.83783 0.07695 0.50676
  -7   1   1 1514.50  145.64   1 0.00008-0.21921 0.57179 0.86945 0.82039 0.44271
  -7  -1   1 1769.94  158.00   1 0.00009-0.29683 0.73523 0.91336 0.67781 0.27865
  -7  -1  -1 1642.47  149.87   1 0.00010-0.21997 0.83220 0.97091 0.55447 0.09452
   7  -1  -1 1659.36  133.97   1 0.00010 0.21865 0.93146 0.63392 0.36382 0.74184
   7  -1   1 1574.76  137.73   1 0.00010 0.14178 0.96790 0.70974 0.25132 0.69004
   7   1  -1 1437.11  127.76   1 0.00010 0.29681 0.99556 0.81765 0.09408 0.49329
   7   1   1 1403.66  128.73   1 0.00009 0.21997 0.99999 0.86145-0.00220 0.45771
   7   1  -1 1440.50  129.92   1 0.00009 0.29671-0.73462-0.91313-0.67847-0.27952
   7   1   1 1353.88  124.69   1 0.00010 0.21987-0.83197-0.97089-0.55481-0.09501
  -7   1   1 1420.41  131.23   1 0.00010-0.21815-0.93088-0.63289-0.36531-0.74286
  -7   1  -1 1461.57  141.18   1 0.00010-0.14131-0.96767-0.70926-0.25222-0.69063
  -7  -1   1 1660.18  147.07   1 0.00010-0.29626-0.99539-0.81695-0.09588-0.49478
  -7  -1  -1 1588.30  149.12   1 0.00009-0.21941-0.99999-0.86110 0.00105-0.45864
  -7  -1   1 1611.16  177.12   1-0.58696-0.88397 0.04985 0.22750 0.80807 0.40843
  -7   1   1 1442.81  170.02   1-0.58328-0.80230 0.12230 0.41953 0.80300 0.42462
  -7   1  -1 1290.60  143.99   1-0.53457-0.67714 0.41548 0.67325 0.73593 0.29699
  -7  -1  -1 1492.24  150.14   1-0.50744-0.72809 0.50445 0.64264 0.69858 0.23852
   7  -1  -1 1726.23  149.67   1-0.34000-0.12063 0.81565 0.51872 0.46808 0.84638
   7  -1   1 1721.69  148.85   1-0.21621-0.07362 0.92986 0.67225 0.29765 0.73664
   7   1  -1 1508.52  129.64   1-0.13107 0.16624 0.97481 0.79752 0.18045 0.57992
   7   1   1 1347.76  117.17   1 0.00418 0.22473 0.99997 0.86199-0.00576 0.45437
  -7   1   2 6078.94  356.39   1 0.00007-0.25773 0.49708 0.81412 0.86770 0.52035
  -7  -1   2 5615.16  331.58   1 0.00009-0.33578 0.66462 0.86245 0.74717 0.37870
   7  -1  -2 5063.20  291.32   1 0.00010 0.25708 0.90932 0.59208 0.41609 0.76376
   7  -1   2 5017.48  296.69   1 0.00010 0.10334 0.98132 0.74286 0.19234 0.66142
   7   1  -2 5201.35  296.25   1 0.00010 0.33523 0.99005 0.79246 0.14066 0.50952
   7   1   2 5193.19  308.81   1 0.00009 0.18155 0.99869 0.87984-0.05104 0.43922
   7   1  -2 5361.33  303.05   1 0.00009 0.33510-0.66421-0.86259-0.74753-0.37899
  -7   1   2 5205.66  301.77   1 0.00010-0.25657-0.90851-0.59073-0.41786-0.76498
  -7  -1   2 5078.05  303.85   1 0.00010-0.33469-0.98974-0.79153-0.14282-0.51132
  -7  -1  -2 5005.85  303.22   1 0.00009-0.18098-0.99874-0.87962 0.05019-0.43990
  -7  -1   2 5249.71  354.33   1-0.57245-0.90778-0.22630-0.02854 0.78808 0.41845
  -7   1   2 5425.67  371.19   1-0.58714-0.84456-0.04325 0.27362 0.80832 0.46025
  -7   1  -2 4538.87  293.24   1-0.49845-0.60273 0.52976 0.76787 0.68621 0.21695
  -7  -1  -2 4644.33  290.05   1-0.44772-0.62999 0.64778 0.76631 0.61637 0.12596
   7  -1  -2 5524.45  325.76   1-0.39938-0.14161 0.73361 0.41703 0.54982 0.89778
   7   1  -2 5504.09  316.54   1-0.22258 0.11312 0.92550 0.72856 0.30642 0.67556
   7  -1   2 5173.56  306.40   1-0.15754-0.05334 0.96340 0.72544 0.21688 0.68621
   7   1   2 4959.09  312.53   1 0.05278 0.23493 0.99595 0.87763-0.07266 0.41781
  -7   1   3 3147.98  225.77   1 0.00007-0.29622 0.41040 0.74714 0.91190 0.59499
  -7  -1   3 3183.75  233.54   1 0.00008-0.37424 0.57639 0.79393 0.81717 0.47916
   7  -1  -3 2700.65  187.57   1 0.00010 0.29574 0.88514 0.54809 0.46531 0.78238
   7   1  -3 2930.77  199.45   1 0.00010 0.37364 0.98265 0.76529 0.18545 0.52413
   7  -1   3 2700.25  200.61   1 0.00010 0.06493 0.99115 0.77230 0.13268 0.63192
   7   1   3 2801.79  205.83   1 0.00009 0.14313 0.99499 0.89582-0.09989 0.42072
  -7   1   3 2748.95  189.77   1 0.00010-0.29499-0.88429-0.54672-0.46693-0.78362
  -7  -1   3 2682.12  196.24   1 0.00010-0.37312-0.98216-0.76417-0.18802-0.52612
  -7  -1  -3 2596.28  198.61   1 0.00009-0.14230-0.99505-0.89579 0.09936-0.42107
  -7  -1   3 2653.98  232.74   1-0.51863-0.89223-0.47035-0.25256 0.71399 0.37433
  -7   1   3 2978.92  261.22   1-0.57511-0.87080-0.20586 0.13116 0.79174 0.47380
  -7   1  -3 2489.71  201.89   1-0.46067-0.52657 0.62094 0.83940 0.63419 0.13458
   7  -1  -3 2935.55  209.66   1-0.45255-0.15639 0.63799 0.30159 0.62302 0.94052
  -7  -1  -3 2434.15  187.90   1-0.39152-0.53529 0.74577 0.84447 0.53900 0.01820
   7   1  -3 2973.63  204.23   1-0.32393 0.05017 0.83437 0.61778 0.44595 0.78474
   7  -1   3 2745.92  196.94   1-0.10304-0.03723 0.98450 0.76620 0.14185 0.64151
   7   1   3 2743.36  192.93   1 0.09315 0.23691 0.98735 0.88868-0.12824 0.39256
  -7   1   417682.68  698.31   1 0.00006-0.33472 0.31284 0.66928 0.94980 0.66334
   7  -1  -414846.76  497.42   1 0.00010 0.33417 0.86004 0.50328 0.51021 0.79688
   7   1  -415567.12  611.99   1 0.00010 0.41208 0.97367 0.73662 0.22792 0.53625
   7  -1   414662.49  508.34   1 0.00010 0.02651 0.99739 0.79822 0.07219 0.60178
   7   1   414875.19  521.12   1 0.00009 0.10495 0.98894 0.90942-0.14828 0.40240
  -7   1   415216.75  502.94   1 0.00010-0.33336-0.85905-0.50167-0.51187-0.79824
  -7  -1   414940.10  520.22   1 0.00010-0.41183-0.97295-0.73506-0.23101-0.53858
  -7   1  -415252.17  591.39   1 0.00010-0.02570-0.99739-0.79830-0.07219-0.60169
  -7  -1   415080.38  575.38   1-0.44644-0.85822-0.65033-0.41292 0.61461 0.30485
  -7   1   416352.38  713.52   1-0.54928-0.88341-0.35562 0.00109 0.75619 0.46858
   7  -1  -416389.81  630.64   1-0.49626-0.16173 0.53568 0.17962 0.68320 0.97034
  -7  -1  -413378.11  486.24   1-0.34384-0.44922 0.81097 0.89002 0.47337-0.07776
   7  -1   415382.74  601.11   1-0.05309-0.02567 0.99590 0.79725 0.07309 0.60309
  -7   1   5 1053.84  133.52   1 0.00005-0.37316 0.20633 0.58234 0.97848 0.72223
  -7  -1   5 1338.08  149.79   1 0.00006-0.45124 0.34112 0.59762 0.94001 0.66274
   7  -1  -5 1035.95  101.28   1 0.00010 0.37259 0.83471 0.45824 0.55068 0.80695
   7   1  -5  975.11   97.74   1 0.00010 0.45051 0.96359 0.70684 0.26736 0.54534
   7  -1   5 1054.51  126.13   1 0.00009-0.01190 0.99993 0.82044 0.01165 0.57159
   7   1   5  947.43  121.84   1 0.00009 0.06657 0.98050 0.92069-0.19648 0.38457
  -7   1   5  922.68  100.14   1 0.00010-0.37179-0.83353-0.45635-0.55246-0.80840
  -7  -1   5 1110.47  116.29   1 0.00010-0.45025-0.96261-0.70493-0.27088-0.54803
  -7   1  -5  989.24  134.06   1 0.00009 0.01272-0.99993-0.82062-0.01141-0.57132
  -7  -1   5 1103.45  142.15   1-0.37479-0.82508-0.77026-0.51313 0.51596 0.23649
  -7   1   5 1024.51  150.67   1-0.51401-0.88643-0.48481-0.10803 0.70763 0.45006
   7  -1  -5 1146.13  126.61   1-0.52958-0.15674 0.43358 0.05784 0.72907 0.98594
  -7  -1  -5  982.58  115.64   1-0.30514-0.37213 0.85464 0.91404 0.42008-0.16138
   7  -1   5 1084.58  123.11   1-0.00756-0.01853 0.99991 0.82091 0.01041 0.57074
  -7   1   6 3094.36  220.10   1 0.00004-0.41166 0.09183 0.48754 0.99577 0.76995
  -7  -1   6 3522.67  236.21   1 0.00005-0.48968 0.19485 0.47091 0.98083 0.73378
   7  -1  -6 2950.90  171.92   1 0.00009 0.41102 0.81002 0.41384 0.58639 0.81227
   7   1  -6 2905.08  173.85   1 0.00010 0.48895 0.95298 0.67654 0.30301 0.55064
   7  -1   6 2802.49  193.25   1 0.00009-0.05033 0.99882 0.83902-0.04852 0.54176
   7   1   6 2642.71  185.13   1 0.00008 0.02820 0.96976 0.92964-0.24405 0.36736
  -7   1   6 2720.68  167.27   1 0.00009-0.41022-0.80866-0.41167-0.58826-0.81378
  -7  -1   6 3099.54  186.51   1 0.00010-0.48867-0.95171-0.67423-0.30699-0.55370
  -7   1  -6 2769.03  195.05   1 0.00009 0.05114-0.99879-0.83926 0.04898-0.54131
  -7  -1  -6 3141.22  211.40   1 0.00008-0.02694-0.96972-0.92968 0.24419-0.36737
  -7  -1   6 3092.73  225.65   1-0.31323-0.80186-0.84612-0.56913 0.43122 0.18195
  -7   1   6 2967.30  234.34   1-0.47308-0.88399-0.59329-0.19680 0.65129 0.42405
   7  -1  -6 3161.52  207.34   1-0.55323-0.14202 0.33739-0.05799 0.76163 0.98816
   7  -1   6 2987.19  191.97   1 0.03393-0.01541 0.99833 0.83898-0.04672 0.54394
  -7   1   7 1752.05  171.15   1 0.00002-0.45017-0.02740 0.38801 0.99962 0.80423
  -7  -1   7 1921.45  180.17   1 0.00003-0.52819 0.03314 0.32890 0.99945 0.78283
   7  -1  -7 1775.67  134.72   1 0.00009 0.44945 0.78684 0.37095 0.61715 0.81264
   7   1   7 1602.58  154.71   1 0.00008-0.01017 0.95676 0.93635-0.29086 0.35091
  -7   1   7 1631.17  132.35   1 0.00009-0.44864-0.78530-0.36852-0.61910-0.81419
  -7  -1   7 1901.75  143.50   1 0.00010-0.52710-0.94095-0.64369-0.33853-0.55482
  -7   1  -7 1617.69  151.23   1 0.00009 0.08978-0.99409-0.85427 0.10850-0.51200
  -7  -1  -7 1857.25  174.86   1 0.00008 0.01150-0.95668-0.93637 0.29113-0.35080
  -7   1   7 1815.42  184.07   1-0.43041-0.87964-0.68091-0.26481 0.59254 0.39509
   7  -1  -7 1870.75  147.72   1-0.56882-0.11923 0.25137-0.16368 0.78309 0.97927
   7  -1   7 1802.32  154.69   1 0.07190-0.01584 0.99248 0.85279-0.09898 0.52201
   7   1   7 1450.14  149.08   1-0.13068-0.14073 0.94695 0.92676-0.29359 0.34827
   7  -1   811289.22  517.79   1 0.00009-0.12677 0.98600 0.86575-0.16669 0.48414
   7   1   811293.26  507.11   1 0.00008-0.04855 0.94156 0.94085-0.33683 0.33531
  -7   1   811931.40  513.06   1 0.00009-0.48707-0.76427-0.32768-0.64489-0.80955
  -7  -1   813564.20  584.25   1 0.00010-0.56552-0.93113-0.61407-0.36468-0.55053
  -7   1  -811918.08  536.35   1 0.00009 0.12823-0.98591-0.86583 0.16726-0.48362
  -7  -1  -812605.39  567.93   1 0.00008 0.04995-0.94142-0.94086 0.33721-0.33508
  -7   1   811863.63  556.00   1-0.00001-0.48722-0.14543 0.28982 0.98936 0.82378
  -7   1   813294.09  663.73   1-0.38744-0.87518-0.75191-0.31609 0.53339 0.36623
   7  -1   812637.12  589.56   1 0.10679-0.01934 0.98335 0.86330-0.14702 0.50430
   7   1   810843.97  500.51   1-0.15527-0.20373 0.92422 0.92407-0.34886 0.32339
   7  -1   9  613.99  131.74   1 0.00008-0.16515 0.97454 0.87399-0.22419 0.45701
  -7   1   9  607.35   99.07   1 0.00009-0.52550-0.74626-0.28987-0.66565-0.79988
  -7  -1   9  766.13  101.82   1 0.00010-0.60394-0.92312-0.58627-0.38451-0.53993
  -7   1  -9  641.98  134.72   1 0.00008 0.16668-0.97438-0.87404 0.22489-0.45636
  -7  -1  -9  709.98  138.34   1 0.00007 0.08894-0.92401-0.94321 0.38234-0.32005
   7  -1   9  594.90  121.54   1-0.11323-0.27848 0.96044 0.86025-0.25440 0.42708
   7   1   9  554.23  122.55   1-0.17994-0.26676 0.89676 0.91640-0.40427 0.29840
   7  -1  10 1900.91  164.75   1 0.00008-0.20353 0.95987 0.87902-0.28042 0.43114
   7   1  10 1978.21  156.61   1 0.00007-0.12539 0.90471 0.94346-0.42601 0.30684
  -7   1  10 1995.77  128.43   1 0.00009-0.56392-0.73188-0.25569-0.68143-0.78524
  -7   1 -10 2012.85  167.26   1 0.00008 0.20513-0.95963-0.87903 0.28125-0.43037
  -7  -1 -10 2089.91  168.78   1 0.00007 0.12742-0.90449-0.94339 0.42649-0.30622
   7  -1  10 1774.84 1830.86   1-0.14512-0.34877 0.93414 0.85409-0.32604 0.38584
   7   1  10 1734.69  158.17   1-0.20462-0.32980 0.86416 0.90359-0.45971 0.27339
   7  -1  11 1499.47  167.08   1 0.00008-0.24190 0.94211 0.88097-0.33527 0.40665
   7   1  11 1516.03  165.97   1 0.00007-0.16377 0.88316 0.94161-0.46906 0.29416
  -7   1 -11 1584.39  171.77   1 0.00008 0.24358-0.94177-0.88091 0.33622-0.40577
  -7  -1 -11 1600.03  181.02   1 0.00007 0.16589-0.88287-0.94147 0.46961-0.29341
  -7  -1 -11 1346.44  168.85   1-0.29384-0.12772-0.86602-0.92437 0.40453-0.35946
   7  -1  11 1373.44  156.12   1-0.17700-0.41901 0.90029 0.84002-0.39767 0.34464
   7   1  11 1356.71  158.35   1-0.22910-0.39264 0.82617 0.88539-0.51472 0.24881
   7  -1  12 6370.37  443.32   1 0.00007-0.28028 0.92137 0.87992-0.38867 0.38362
   7   1  12 6282.03  420.79   1 0.00006-0.20215 0.85954 0.93771-0.51105 0.28253
  -7   1 -12 7061.77  488.84   1 0.00007 0.28246-0.92097-0.87981 0.38963-0.38227
  -7  -1 -12 7147.30  490.24   1 0.00006 0.20437-0.85917-0.93749 0.51167-0.28167
  -7  -1 -12 5765.75  428.05   1-0.31241-0.10778-0.84700-0.92507 0.43009-0.36418
   7  -1  12 5928.75  420.74   1-0.20880-0.48916 0.85810 0.81762-0.46910 0.30364
   7   1  12 5972.08  420.32   1-0.25333-0.45501 0.78223 0.86175-0.56915 0.22436
   7  -3   0 2709.47  172.74   1 0.00010 0.10232 0.87377 0.47636 0.48632 0.87327
  -7  -3   0 2937.57  183.10   1 0.00010-0.33653 0.90252 0.94145 0.43064-0.02021
   7   3   0 2744.27  171.02   1 0.00008 0.33668 0.96290 0.92412-0.26984 0.18069
   7   3   0 2690.84  157.33   1 0.00010 0.33677-0.90213-0.94138-0.43145 0.01915
  -7  -3   0 2624.11  183.84   1 0.00008-0.33594-0.96314-0.92417 0.26899-0.18174
  -7  -3   0 2568.03  200.30   1-0.47810-0.81441-0.58154-0.54244 0.65819 0.20612
  -7  -3   0 2708.68  217.70   1-0.58049-0.91710 0.15615 0.19458 0.79915 0.34793
  -7   3   0 2545.08  214.07   1-0.57322-0.67618 0.22057 0.61757 0.78915 0.40171
   7  -3   0 2899.88  194.65   1-0.35961-0.25658 0.79092 0.39402 0.49507 0.88256
   7  -3  -1 2977.23  177.50   1 0.00010 0.14075 0.84364 0.42651 0.53691 0.89346
  -7  -3   1 3203.21  198.14   1 0.00010-0.37496 0.86479 0.92343 0.50212 0.08166
   7  -3   1 2931.44  183.62   1 0.00010 0.06365 0.90195 0.52423 0.43183 0.84919
   7   3  -1 3418.37  198.30   1 0.00008 0.37505 0.96910 0.91061-0.24665 0.17351
   7   3   1 3254.78  188.31   1 0.00008 0.29830 0.95536 0.93627-0.29544 0.18546
  -7   3   1 3381.76  193.92   1 0.00010-0.13965-0.84314-0.42569-0.53769-0.89402
   7   3  -1 3267.65  180.04   1 0.00010 0.37515-0.86419-0.92324-0.50315-0.08289
  -7  -3   1 2936.91  200.79   1 0.00008-0.37439-0.96935-0.91065 0.24565-0.17472
  -7  -3  -1 2944.17  195.98   1 0.00008-0.29749-0.95557-0.93635 0.29474-0.18638
  -7   3   1 3298.16  243.98   1-0.58436-0.72538 0.10635 0.52314 0.80448 0.44735
  -7  -3  -1 2921.44  197.53   1-0.47175-0.77039 0.59636 0.61497 0.64945 0.16823
   7  -3  -1 3405.54  211.89   1-0.40447-0.26305 0.72548 0.30892 0.55684 0.91398
   7  -3   1 3058.44  196.53   1-0.31186-0.24721 0.84758 0.47032 0.42934 0.84715
   7  -3  -2 4421.44  215.35   1 0.00009 0.17917 0.81234 0.37551 0.58317 0.90933
  -7  -3   2 5023.55  253.51   1 0.00009-0.41339 0.81111 0.88946 0.58488 0.19482
   7  -3   2 4433.85  233.60   1 0.00010 0.02522 0.92745 0.56941 0.37394 0.82166
   7   3  -2 4349.65  223.39   1 0.00008 0.41343 0.97398 0.89579-0.22663 0.16317
   7   3   2 4387.78  229.24   1 0.00008 0.25993 0.94644 0.94706-0.32285 0.18841
   7   3  -2 4359.34  210.03   1 0.00009 0.41357-0.81019-0.88904-0.58616-0.19632
  -7   3   2 4612.92  229.70   1 0.00009-0.17808-0.81169-0.37444-0.58407-0.90998
  -7   3  -2 4561.48  239.63   1 0.00010-0.02446-0.92731-0.56922-0.37428-0.82181
  -7  -3   2 4447.75  243.84   1 0.00008-0.41285-0.97425-0.89581 0.22546-0.16453
  -7  -3  -2 4453.29  247.81   1 0.00008-0.25904-0.94663-0.94715 0.32229-0.18919
  -7  -3  -2 3931.41  242.54   1-0.36971-0.62851-0.77734-0.77779 0.50897-0.00396
  -7   3   2 4613.93  304.89   1-0.58764-0.76706-0.01325 0.42319 0.80900 0.48219
   7  -3  -2 5063.47  259.86   1-0.44513-0.26534 0.65293 0.21659 0.61281 0.93950
  -7  -3  -2 4212.95  219.80   1-0.36851-0.62862 0.77898 0.77770 0.50732-0.00429
   7  -3   2 4704.12  257.13   1-0.26267-0.23643 0.89455 0.53696 0.36161 0.80979
   7   3   2 3926.13  211.26   1-0.11709 0.14315 0.95764 0.95815-0.26306 0.24788
  -7  -3   3 1575.63  148.01   1 0.00009-0.45183 0.73549 0.83355 0.67752 0.31785
   7  -3  -3 1391.38  120.87   1 0.00009 0.21760 0.78073 0.32418 0.62486 0.92062
   7  -3   3 1432.76  131.95   1 0.00010-0.01321 0.94969 0.61135 0.31318 0.79124
   7   3  -3 1511.75  131.32   1 0.00009 0.45180 0.97753 0.87964-0.21079 0.14865
   7   3   3 1451.08  134.78   1 0.00008 0.22155 0.93613 0.95645-0.35163 0.18999
  -7   3   3 1496.78  135.26   1 0.00009-0.21651-0.77993-0.32288-0.62585-0.92133
  -7   3  -3 1575.51  139.12   1 0.00010 0.01395-0.94966-0.61137-0.31325-0.79122
  -7  -3   3 1410.41  143.79   1 0.00009-0.45130-0.97781-0.87964 0.20944-0.15018
  -7  -3  -3 1422.92  148.42   1 0.00008-0.22059-0.93629-0.95655 0.35121-0.19065
  -7  -3  -3 1291.81  145.00   1-0.35645-0.57674-0.79505-0.81523 0.49073-0.05249
  -7   3   3 1591.38  198.83   1-0.58246-0.80007-0.13322 0.32338 0.80186 0.50527
   7  -3  -3 1585.21  150.97   1-0.48025-0.26209 0.57639 0.12040 0.66115 0.95750
  -7  -3  -3 1287.10  114.90   1-0.29273-0.51444 0.86712 0.84618 0.40299-0.13895
   7  -3   3 1502.05  142.32   1-0.21344-0.22559 0.93171 0.59377 0.29384 0.77235
   7   3   3 1367.12  134.62   1-0.13254 0.08926 0.94538 0.96577-0.29778 0.24354
  -7  -3   4 1622.08  151.81   1 0.00008-0.49082 0.62932 0.74704 0.77713 0.44833
   7  -3  -4 1430.45  123.16   1 0.00009 0.25602 0.74964 0.27339 0.66183 0.92720
   7  -3   4 1356.96  137.36   1 0.00010-0.05164 0.96821 0.64956 0.25013 0.75855
   7   3  -4 1588.58  133.15   1 0.00009 0.49018 0.97968 0.86209-0.20055 0.12852
   7   3   4 1547.71  147.06   1 0.00007 0.18317 0.92440 0.96442-0.38141 0.19058
  -7   3   4 1551.14  134.11   1 0.00009-0.25494-0.74870-0.27186-0.66289-0.92795
  -7   3  -4 1586.25  149.54   1 0.00010 0.05237-0.96826-0.64975-0.24994-0.75833
  -7  -3   4 1511.73  144.59   1 0.00009-0.48975-0.97999-0.86207 0.19902-0.13022
  -7  -3  -4 1558.04  155.38   1 0.00007-0.18152-0.92450-0.96464 0.38116-0.19110
  -7  -3  -4 1370.92  155.44   1-0.35168-0.53346-0.80119-0.84109 0.48415-0.08935
   7  -3  -4 1645.29  150.14   1-0.50936-0.25283 0.49880 0.02315 0.70123 0.96723
  -7  -3  -4 1426.54  122.52   1-0.23866-0.42199 0.91383 0.87322 0.32856-0.24373
   7  -3   4 1547.91  153.77   1-0.16518-0.21572 0.95968 0.64140 0.22740 0.73625
  -7  -3   5 4842.69  255.71   1 0.00007-0.52926 0.48732 0.62418 0.87321 0.57468
   7  -3  -5 3635.82  176.45   1 0.00009 0.29509 0.71960 0.22354 0.69438 0.92894
   7   3   5 4311.13  213.71   1 0.00007 0.14480 0.91123 0.97095-0.41189 0.19046
  -7   3   5 4213.83  196.82   1 0.00009-0.29336-0.71882-0.22217-0.69519-0.92982
  -7   3  -5 4388.24  220.92   1 0.00010 0.09113-0.98266-0.68384-0.18539-0.72391
  -7  -3   5 3710.70  207.16   1 0.00009-0.52821-0.98054-0.84289 0.19628-0.10259
  -7  -3  -5 3853.75  212.48   1 0.00007-0.14304-0.91130-0.97114 0.41173-0.19084
  -7  -3  -5 3500.48  226.42   1-0.35187-0.49514-0.80094-0.86056 0.48442-0.11938
   7  -3  -5 4108.73  214.68   1-0.53242-0.23758 0.42337-0.07193 0.73298 0.96869
  -7  -3  -5 3585.05  176.27   1-0.20046-0.34540 0.94002 0.87976 0.27597-0.32666
   7  -3   5 3862.71  215.13   1-0.11860-0.20753 0.97942 0.68079 0.16328 0.70246
  -7  -3   6 3858.89  258.70   1 0.00006-0.56777 0.29751 0.45406 0.95471 0.68662
   7  -3  -6 3165.90  182.45   1 0.00009 0.33355 0.69184 0.17607 0.72204 0.92614
   7  -3   6 2942.88  199.06   1 0.00010-0.12853 0.99276 0.71328 0.12007 0.68899
   7   3   6 3410.86  210.59   1 0.00007 0.10635 0.89659 0.97602-0.44284 0.18989
  -7   3   6 3291.72  189.14   1 0.00009-0.33173-0.69096-0.17445-0.72289-0.92709
  -7   3  -6 3383.93  216.11   1 0.00010 0.12956-0.99285-0.71380-0.11933-0.68825
  -7  -3   6 3164.16  208.19   1 0.00009-0.56666-0.97885-0.82146 0.20455-0.06395
  -7  -3  -6 3045.52  231.14   1-0.35522-0.45998-0.79665-0.87599 0.48903-0.14505
   7  -3  -6 3506.94  214.86   1-0.55001-0.21680 0.35231-0.16266 0.75720 0.96256
  -7  -3  -6 3098.97  185.02   1-0.17369-0.28024 0.95532 0.87541 0.23912-0.39384
   7  -3   6 3256.77  219.50   1-0.07413-0.20144 0.99201 0.71303 0.10205 0.67156
   7   3   6 3157.32  201.93   1-0.18335-0.07662 0.89257 0.97233-0.41192 0.22068
   7  -3  -7  872.04   97.67   1 0.00009 0.37200 0.66676 0.13127 0.74526 0.91890
   7  -3   7  836.24  133.47   1 0.00010-0.16695 0.99855 0.73875 0.05370 0.65296
   7   3   7  899.56  128.80   1 0.00007 0.06797 0.88047 0.97961-0.47408 0.18901
  -7   3   7  864.48  115.41   1 0.00009-0.37016-0.66582-0.12951-0.74610-0.91989
  -7   3  -7  891.03  157.19   1 0.00010 0.16799-0.99860-0.73933-0.05272-0.65204
  -7  -3  -7  839.93  146.89   1-0.36070-0.42695-0.78949-0.88856 0.49657-0.16781
   7  -3  -7  965.86  130.91   1-0.56287-0.19128 0.28755-0.24708 0.77490 0.94992
   7  -3   7  927.22  134.00   1-0.03195-0.19765 0.99852 0.73919 0.04398 0.64383
   7   3   7  821.58  120.26   1-0.20128-0.13291 0.86890 0.96844-0.45221 0.21083
   7  -3  -8 1221.02  114.27   1 0.00008 0.41046 0.64487 0.08966 0.76428 0.90745
   7  -3   8 1216.99  146.56   1 0.00009-0.20537 0.99991 0.75980-0.01275 0.61686
   7   3   8 1513.16  162.32   1 0.00006 0.02960 0.86286 0.98171-0.50543 0.18802
  -7   3  -8 1498.97  163.27   1 0.00009 0.20641-0.99990-0.76040 0.01394-0.61577
  -7  -3  -8 1474.91  163.81   1 0.00006-0.02762-0.86281-0.98177 0.50551-0.18801
  -7  -3  -8 1301.94  169.81   1-0.36765-0.39538-0.78016-0.89895 0.50613-0.18853
   7  -3  -8 1466.54  153.73   1-0.57192-0.16195 0.23013-0.32416 0.78736 0.93203
   7  -3   8 1363.23  157.46   1 0.00789-0.19619 0.99991 0.76023-0.01086 0.61931
   7   3   8 1377.51  151.20   1-0.21944-0.18943 0.84188 0.96121-0.49302 0.20044
   7  -3  -9 2303.06  133.39   1 0.00008 0.44891 0.62655 0.05163 0.77937 0.89208
   7  -3   9 2182.02  174.36   1 0.00009-0.24379 0.99688 0.77645-0.07886 0.58110
   7   3   9 2669.36  185.99   1 0.00006-0.00877 0.84374 0.98230-0.53674 0.18707
  -7   3  -9 2693.07  184.93   1 0.00009 0.24496-0.99680-0.77694 0.07987-0.57994
  -7  -3  -9 2508.50  185.78   1 0.00006 0.01085-0.84364-0.98231 0.53690-0.18694
  -7  -3  -9 2188.36  191.07   1-0.37564-0.36487-0.76905-0.90756 0.51715-0.20781
   7  -3  -9 2487.15  160.03   1-0.57799-0.12977 0.18095-0.39310 0.79572 0.91028
   7  -3   9 2401.92  180.54   1 0.04547-0.19700 0.99700 0.77697-0.06260 0.59790
   7   3   9 2439.70  172.15   1-0.23770-0.24605 0.81135 0.95047-0.53403 0.18986
   7  -3  10 2223.55  176.57   1 0.00009-0.28176 0.98951 0.78911-0.14445 0.54580
   7   3  10 2327.37  176.49   1 0.00006-0.04715 0.82309 0.98136-0.56790 0.18627
  -7   3 -10 2402.45  177.96   1 0.00009 0.28341-0.98936-0.78924 0.14544-0.54475
  -7  -3 -10 2560.01  179.52   1 0.00006 0.04932-0.82293-0.98130 0.56813-0.18602
  -7  -3 -10 2176.73  186.91   1-0.38440-0.33512-0.75641-0.91465 0.52920-0.22604
   7  -3 -10 2446.97  160.01   1-0.58200-0.09538 0.13893-0.45478 0.80123 0.88547
   7  -3  10 2506.93  178.10   1 0.08092-0.19994 0.99047 0.79010-0.11140 0.57944
   7   3  10 2123.52  171.19   1-0.25600-0.30252 0.77695 0.93625-0.57515 0.17863
   7  -3  11  670.21  138.19   1 0.00009-0.32013 0.97794 0.79725-0.20886 0.51176
  -7   3 -11  847.78  139.95   1 0.00009 0.32186-0.97770-0.79732 0.21000-0.51056
  -7  -3 -11  739.82  147.02   1 0.00006 0.08780-0.80066-0.97873 0.59911-0.18536
  -7  -3 -11  639.28  145.62   1-0.39371-0.30592-0.74242-0.92038 0.54202-0.24351
   7   3  11  672.26  129.27   1-0.27399-0.35883 0.73892 0.91803-0.61556 0.16865
   7  -3  12  679.78  139.17   1 0.00008-0.35851 0.96228 0.80129-0.27204 0.47894
   7   3  12  665.71  131.02   1 0.00005-0.12390 0.77710 0.97479-0.62937 0.18552
  -7   3 -12  714.07  138.82   1 0.00008 0.36031-0.96192-0.80128 0.27332-0.47761
  -7  -3 -12  809.92  145.62   1 0.00005 0.12627-0.77678-0.97458 0.62976-0.18502
  -7  -3 -12  743.75  148.02   1-0.40342-0.27712-0.72717-0.92486 0.55539-0.26043
   7   3  12  586.79  127.89   1-0.29162-0.41480 0.69690 0.89582-0.65519 0.15945
   7  -5   0 2392.85  157.31   1 0.00009 0.02417 0.80653 0.28962 0.59119 0.95683
   7   5   0 2843.33  169.00   1 0.00006 0.41484 0.82430 0.90499-0.56614-0.09424
  -7   5   0 2803.33  168.63   1 0.00009-0.02280-0.80625-0.28914-0.59156-0.95701
  -7  -5   0 2370.80  182.89   1 0.00006-0.41353-0.82498-0.90575 0.56515 0.09272
   7  -5   0 2672.31  196.13   1-0.38896-0.36388 0.74964 0.23310 0.53548 0.90180
   7   5   0 2512.91  167.67   1-0.18469 0.23066 0.89090 0.97140-0.41494 0.05631
   7  -5  -1 5735.39  236.31   1 0.00009 0.06260 0.77301 0.23639 0.63438 0.96963
   7  -5   1 5738.39  249.01   1 0.00010-0.01424 0.83942 0.34222 0.54347 0.93950
  -7  -5   1 6171.21  246.88   1 0.00010-0.45282 0.94522 0.88406 0.32642-0.11566
   7   5   1 5852.37  245.20   1 0.00006 0.37646 0.82376 0.92416-0.56693-0.06467
   7   5  -1 5909.87  253.16   1 0.00006 0.45321 0.82097 0.88195-0.57097-0.12943
  -7   5  -1 5878.42  249.76   1 0.00010 0.01562-0.83927-0.34196-0.54370-0.93958
  -7  -5   1 5924.79  275.92   1 0.00006-0.45201-0.82175-0.88282 0.56984 0.12772
  -7  -5  -1 5829.20  271.92   1 0.00006-0.37505-0.82435-0.92483 0.56607 0.06331
  -7  -5  -1 5434.15  309.58   1-0.57555-0.95176 0.20226 0.10145 0.79235 0.28955
   7  -5  -1 6400.83  284.26   1-0.42396-0.36054 0.69252 0.15626 0.58366 0.91956
  -7  -5  -1 5637.11  259.35   1-0.41502-0.79167 0.70802 0.60704 0.57135 0.06896
   7  -5   1 6185.61  282.36   1-0.35098-0.36429 0.80207 0.30518 0.48320 0.87985
   7   5  -1 5441.91  250.09   1-0.17764 0.27606 0.89952 0.96023-0.39911 0.04171
   7   5   1 5284.76  235.78   1-0.19294 0.18404 0.88026 0.98054-0.43348 0.06819
   7  -5  -212465.12  366.43   1 0.00009 0.10103 0.73964 0.18331 0.67299 0.97784
   7  -5   211823.97  400.39   1 0.00010-0.05267 0.87093 0.39344 0.49140 0.91784
  -7  -5   213529.34  420.98   1 0.00010-0.49125 0.91247 0.87101 0.40913-0.00261
   7   5   211937.58  393.58   1 0.00006 0.33809 0.82016 0.94028-0.57212-0.03950
   7   5  -211928.19  403.61   1 0.00006 0.49159 0.81242 0.85369-0.58307-0.17189
  -7   5  -212079.99  389.28   1 0.00010 0.05394-0.87080-0.39324-0.49162-0.91784
  -7  -5   212892.49  425.36   1 0.00006-0.49049-0.81334-0.85470 0.58177 0.16997
  -7  -5  -212616.28  527.02   1 0.00006-0.33657-0.82068-0.94087 0.57137 0.03830
   7  -5   213087.52  459.94   1-0.31071-0.36240 0.84881 0.37156 0.42775 0.85474
   7   5  -210769.56  402.29   1-0.17197 0.32009 0.90616 0.94708-0.38638 0.02402
   7  -5  -3 4426.62  234.95   1 0.00009 0.14005 0.70698 0.13081 0.70722 0.98146
  -7  -5   3 5009.09  269.07   1 0.00010-0.52996 0.85937 0.83793 0.51134 0.13037
   7   5   3 4389.69  255.55   1 0.00006 0.29971 0.81403 0.95386-0.58081-0.01783
  -7   5   3 4380.43  241.13   1 0.00009-0.13808-0.70653-0.13002-0.70767-0.98184
  -7   5  -3 4446.30  246.21   1 0.00010 0.09237-0.90026-0.44249-0.43535-0.89200
  -7  -5  -3 4547.75  271.02   1 0.00006-0.29810-0.81449-0.95438 0.58017 0.01678
  -7  -5   3 4727.96  275.75   1 0.00005-0.52897-0.79746-0.81912 0.60336 0.22187
  -7  -5  -3 4220.82  274.63   1-0.55039-0.84968-0.35060-0.49042 0.75771 0.19371
   7  -5  -3 5130.99  285.79   1-0.48257-0.34240 0.57075-0.00482 0.66434 0.93954
   7  -5   3 4875.71  291.76   1-0.26889-0.35899 0.88919 0.43162 0.37018 0.82754
   7   5  -3 4032.39  229.96   1-0.16786 0.36256 0.91082 0.93195-0.37712 0.00284
   7   5   3 4137.54  239.14   1-0.21247 0.08779 0.85262 0.99249-0.47737 0.08517
   7  -5  -4 1826.53  155.63   1 0.00009 0.17851 0.67600 0.08011 0.73689 0.98066
   7  -5   4 1698.21  157.49   1 0.00010-0.12977 0.92669 0.48848 0.37581 0.86286
   7   5   4 2002.28  158.90   1 0.00006 0.26134 0.80571 0.96524-0.59230 0.00102
  -7   5   4 1873.47  152.75   1 0.00009-0.17644-0.67547-0.07912-0.73737-0.98112
  -7   5  -4 1934.95  166.60   1 0.00010 0.13079-0.92685-0.48888-0.37540-0.86248
  -7  -5  -4 1979.01  175.81   1 0.00006-0.25962-0.80610-0.96570 0.59177-0.00193
  -7  -5   4 2093.88  173.42   1 0.00005-0.56746-0.76968-0.77166 0.63842 0.28726
  -7  -5  -4 1690.46  169.99   1-0.52681-0.78733-0.44325-0.60257 0.72525 0.13044
   7  -5  -4 2115.00  178.64   1-0.50572-0.32717 0.50943-0.08580 0.69621 0.94105
   7  -5   4 1993.01  204.43   1-0.22636-0.35485 0.92284 0.48492 0.31163 0.79932
   7   5  -4 1845.73  152.08   1-0.16548 0.40331 0.91345 0.91479-0.37177-0.02223
   7   5   4 1780.83  163.62   1-0.22346 0.03844 0.83546 0.99511-0.50206 0.09091
   7  -5  -5 4560.80  237.01   1 0.00008 0.21696 0.64715 0.03155 0.76235 0.97566
   7  -5   5 4311.75  256.23   1 0.00010-0.16821 0.94977 0.53125 0.31294 0.83034
   7   5   5 4943.09  284.10   1 0.00005 0.22296 0.79542 0.97466-0.60605 0.01763
  -7   5   5 4728.69  259.91   1 0.00008-0.21487-0.64657-0.03042-0.76284-0.97616
  -7   5  -5 4929.11  286.75   1 0.00010 0.16921-0.94999-0.53180-0.31227-0.82979
  -7  -5  -5 4938.17  293.25   1 0.00005-0.22114-0.79575-0.97506 0.60561-0.01840
  -7  -5   5 4734.00  287.93   1 0.00004-0.60594-0.72065-0.70292 0.69329 0.37245
  -7  -5  -5 4402.63  285.36   1-0.50945-0.73150-0.49854-0.67756 0.70136 0.07621
   7  -5  -5 5286.92  308.23   1-0.52479-0.30794 0.45012-0.16476 0.72247 0.93702
   7  -5   5 5156.34  318.41   1-0.18376-0.35064 0.94985 0.53159 0.25298 0.77101
   7   5  -5 4663.73  267.46   1-0.16504 0.44209 0.91392 0.89547-0.37081-0.05169
   7   5   5 4351.47  261.62   1-0.23509-0.01153 0.81594 0.99538-0.52817 0.09522
   7  -5  -610694.13  543.17   1 0.00008 0.25542 0.62091-0.01440 0.78387 0.96672
   7  -5   610116.94  543.49   1 0.00010-0.20664 0.96890 0.57007 0.24742 0.79517
   7   5   611740.79  626.41   1 0.00005 0.18459 0.78332 0.98228-0.62161 0.03244
  -7   5  -611179.60  586.30   1 0.00010 0.20763-0.96914-0.57074-0.24649-0.79444
  -7  -5  -611547.53  620.87   1 0.00005-0.18267-0.78357-0.98261 0.62129-0.03303
  -7  -5  -610494.03  595.36   1-0.49718-0.68075-0.53320-0.73193 0.68447 0.02899
   7  -5  -612007.69  629.61   1-0.54017-0.28494 0.39394-0.24060 0.74365 0.92785
   7  -5   611917.74  649.35   1-0.14163-0.34690 0.97052 0.57191 0.19498 0.74335
   7   5  -610869.47  595.15   1-0.16681 0.47869 0.91198 0.87374-0.37476-0.08607
   7  -5  -7 3465.60  154.76   1 0.00008 0.29387 0.59767-0.05736 0.80174 0.95411
   7  -5   7 3389.58  194.90   1 0.00010-0.24508 0.98370 0.60456 0.17980 0.75791
   7   5   7 3861.60  199.80   1 0.00005 0.14621 0.76952 0.98819-0.63861 0.04579
  -7   5  -7 3606.39  194.10   1 0.00010 0.24640-0.98381-0.60503-0.17918-0.75711
  -7  -5  -7 3794.56  210.18   1 0.00005-0.14419-0.76972-0.98846 0.63838-0.04626
  -7  -5  -7 3560.76  225.32   1-0.48899-0.63407-0.55471-0.77316 0.67318-0.01261
   7  -5  -7 4064.22  208.11   1-0.55225-0.25865 0.34204-0.31217 0.76027 0.91413
   7  -5   7 3988.64  221.11   1-0.10040-0.34406 0.98529 0.60633 0.13822 0.71692
   7   5   7 3446.95  190.24   1-0.25979-0.11281 0.76931 0.98857-0.58366 0.09998
   7  -5  -8 2054.35  128.83   1 0.00008 0.33233 0.57770-0.09703 0.81624 0.93815
   7  -5   8 1907.93  159.79   1 0.00010-0.28358 0.99379 0.63400 0.11122 0.71946
   7   5   8 2152.38  170.82   1 0.00005 0.10788 0.75422 0.99245-0.65661 0.05821
  -7   5  -8 2095.70  161.21   1 0.00010 0.28483-0.99395-0.63494-0.10980-0.71813
   7  -5  -8 2286.52  163.32   1-0.56152-0.22955 0.29508-0.37878 0.77305 0.89656
   7  -5   8 2173.40  179.40   1-0.06034-0.34239 0.99471 0.63540 0.08308 0.69211
   7   5   8 2017.38  170.72   1-0.27254-0.16389 0.74214 0.98121-0.61232 0.10175
   7  -5  -9 3979.87  220.75   1 0.00008 0.37078 0.56122-0.13323 0.82766 0.91911
   7  -5   9 3762.75  247.77   1 0.00010-0.32200 0.99915 0.65904 0.04110 0.67968
   7   5   9 4506.98  283.07   1 0.00005 0.06951 0.73720 0.99515-0.67566 0.06952
  -7   5  -9 4559.00  285.61   1 0.00010 0.32325-0.99922-0.65998-0.03945-0.67817
  -7  -5  -9 4009.24  282.63   1-0.48151-0.54964-0.57333-0.83120 0.66289-0.08356
   7  -5  -9 4512.25  270.79   1-0.56850-0.19815 0.25346-0.44007 0.78265 0.87582
   7  -5   9 4407.81  284.79   1-0.02166-0.34209 0.99932 0.65966 0.02981 0.66918
   7   5   9 4184.66  277.76   1-0.28544-0.21511 0.71223 0.97111-0.64128 0.10321
   7  -5 -10 6284.46  402.87   1 0.00008 0.40924 0.54835-0.16582 0.83624 0.89723
   7  -5  10 5869.22  406.04   1 0.00009-0.36042 0.99956 0.67913-0.02950 0.63942
   7   5  10 6478.38  439.92   1 0.00004 0.03114 0.71863 0.99629-0.69538 0.08016
  -7   5 -10 6434.66  434.64   1 0.00009 0.36168-0.99950-0.68004 0.03137-0.63774
  -7  -5 -10 6959.27  473.87   1 0.00004-0.02876-0.71850-0.99637 0.69551-0.08007
  -7  -5 -10 6190.02  441.68   1-0.48102-0.51067-0.57451-0.85210 0.66222-0.11456
   7  -5 -10 6765.22  449.07   1-0.57365-0.16492 0.21729-0.49590 0.78974 0.85257
   7  -5  10 6767.00  462.62   1 0.01556-0.34325 0.99964 0.67964-0.02143 0.64827
   7   5  10 5745.18  399.53   1-0.29835-0.26636 0.67947 0.95817-0.67029 0.10463
   7  -7   0  587.08   97.95   1 0.00009-0.05396 0.76324 0.12683 0.64611 0.99045
  -7   7   0  707.50  117.16   1 0.00009 0.05562-0.76311-0.12654-0.64625-0.99040
  -7  -7   0  671.61  122.16   1 0.00003-0.49164-0.62076-0.82104 0.78399 0.29013
   7  -7   0  725.91  152.91   1-0.39443-0.44730 0.74132 0.10514 0.54301 0.88818
   7   7   0  671.91  117.00   1-0.26045 0.23332 0.76794 0.96790-0.58516-0.09337
   7  -7  -1 1492.89  153.45   1 0.00009-0.01553 0.73024 0.07413 0.68318 0.99712
   7   7   1 1389.92  143.54   1 0.00003 0.45472 0.63557 0.85527-0.77203-0.24845
  -7   7   1 1394.07  154.10   1 0.00009 0.01719-0.73002-0.07364-0.68341-0.99713
  -7   7  -1 1417.96  167.32   1 0.00009 0.09405-0.79649-0.17972-0.60464-0.97921
  -7  -7   1 1643.42  172.96   1 0.00003-0.53012-0.59665-0.77722 0.80249 0.33895
   7  -7  -1 1824.94  193.21   1-0.42371-0.43828 0.69296 0.03711 0.58332 0.89806
   7  -7   1 1711.80  199.78   1-0.36255-0.45381 0.78703 0.17050 0.49912 0.87463
   7   7  -1 1376.65  164.19   1-0.25735 0.27475 0.77424 0.95438-0.57819-0.11683
   7   7   1 1419.24  156.03   1-0.26467 0.19078 0.75918 0.97895-0.59463-0.07241
   7  -7  -2 1393.84  131.44   1 0.00009 0.02347 0.69806 0.02206 0.71603 0.99948
   7  -7   2 1335.19  140.52   1 0.00010-0.13081 0.82940 0.23242 0.55864 0.96377
   7   7   2 1416.94  140.12   1 0.00003 0.41635 0.64518 0.88459-0.76402-0.21007
  -7   7   2 1291.19  115.54   1 0.00009-0.02114-0.69783-0.02163-0.71626-0.99954
  -7   7  -2 1361.19  139.93   1 0.00010 0.13248-0.82948-0.23250-0.55853-0.96353
  -7  -7  -2 1404.69  152.98   1 0.00003-0.41468-0.64598-0.88567 0.76335 0.20885
  -7  -7   2 1408.04  147.24   1 0.00002-0.56860-0.56088-0.72175 0.82789 0.39466
   7  -7  -2 1582.58  172.92   1-0.45008-0.42627 0.64303-0.03246 0.61962 0.90400
   7  -7   2 1573.42  179.01   1-0.32843-0.45808 0.82926 0.23239 0.45215 0.85799
   7   7  -2 1346.07  142.77   1-0.25551 0.31493 0.77793 0.93826-0.57405-0.14312
   7   7   2 1330.32  144.72   1-0.26986 0.14726 0.74805 0.98764-0.60629-0.05364
   7  -7  -3 2905.15  162.32   1 0.00009 0.06193 0.66740-0.02831 0.74469 0.99767
   7  -7   3 2885.05  182.45   1 0.00010-0.16924 0.86119 0.28392 0.50826 0.94379
   7   7   3 3147.10  182.31   1 0.00004 0.37798 0.64984 0.90897-0.76006-0.17575
  -7   7  -3 2935.65  175.71   1 0.00010 0.17091-0.86136-0.28418-0.50799-0.94341
  -7  -7  -3 3026.70  199.50   1 0.00004-0.37620-0.65052-0.90992 0.75948 0.17466
   7  -7  -3 3461.49  216.48   1-0.47339-0.41121 0.59259-0.10256 0.65171 0.90574
   7  -7   3 3367.38  220.32   1-0.29252-0.46055 0.86732 0.29010 0.40271 0.83888
   7   7  -3 3017.14  177.76   1-0.25508 0.35369 0.77878 0.91930-0.57308-0.17257
   7   7   3 2956.15  184.64   1-0.27590 0.10290 0.73460 0.99401-0.61986-0.03679
   7  -7  -4  876.17  110.62   1 0.00008 0.10038 0.63868-0.07674 0.76946 0.99198
   7  -7   4  880.50  131.08   1 0.00010-0.20766 0.89119 0.33362 0.45362 0.91954
   7   7   4 1077.69  134.47   1 0.00004 0.33961 0.65049 0.92934-0.75950-0.14482
  -7   7  -4 1044.60  135.96   1 0.00010 0.20921-0.89134-0.33389-0.45333-0.91910
  -7  -7  -4  891.29  134.15   1 0.00004-0.33772-0.65108-0.93018 0.75900 0.14387
   7  -7  -4 1033.27  149.87   1-0.49362-0.39307 0.54269-0.17212 0.67956 0.90325
   7  -7   4  994.06  147.67   1-0.25525-0.46170 0.90075 0.34320 0.35140 0.81794
   7   7  -4 1051.93  128.79   1-0.25623 0.39086 0.77649 0.89718-0.57567-0.20560
   7   7   4  943.19  138.68   1-0.28267 0.05780 0.71887 0.99809-0.63506-0.02156
   7  -7  -5 1133.76  104.00   1 0.00008 0.13884 0.61231-0.12283 0.79061 0.98266
   7  -7   5 1194.72  140.42   1 0.00010-0.24633 0.91853 0.38044 0.39534 0.89139
   7   7   5 1210.99  132.50   1 0.00003 0.30124 0.64780 0.94637-0.76180-0.11675
  -7   7  -5 1122.70  140.26   1 0.00010 0.24763-0.91889-0.38124-0.39449-0.89069
  -7  -7  -5 1241.16  150.41   1 0.00003-0.29924-0.64829-0.94710 0.76138 0.11594
   7  -7  -5 1327.34  157.70   1-0.51087-0.37195 0.49432-0.24015 0.70331 0.89664
   7  -7   5 1394.62  186.82   1-0.21718-0.46202 0.92921 0.39131 0.29899 0.79587
   7   7   5 1099.14  147.84   1-0.29005 0.01208 0.70086 0.99989-0.65165-0.00772
   7  -7  -6 1208.98  128.10   1 0.00008 0.17729 0.58859-0.16625 0.80842 0.97001
   7  -7   6 1123.78  147.06   1 0.00010-0.28477 0.94289 0.42450 0.33307 0.85947
   7   7   6 1369.91  156.79   1 0.00003 0.26287 0.64223 0.96052-0.76650-0.09109
  -7   7  -6 1300.92  151.68   1 0.00010 0.28605-0.94329-0.42542-0.33196-0.85859
  -7  -7  -6 1245.80  158.34   1 0.00003-0.26076-0.64264-0.96116 0.76616 0.09040
   7  -7  -6 1398.03  165.84   1-0.52530-0.34807 0.44841-0.30571 0.72317 0.88621
   7  -7   6 1420.21  193.59   1-0.17871-0.46193 0.95264 0.43439 0.24603 0.77324
   7   7   6 1275.85  160.18   1-0.29794-0.03412 0.68055 0.99940-0.66938 0.00497
   7  -7  -7 1360.99  139.88   1 0.00008 0.21575 0.56778-0.20679 0.82317 0.95429
   7  -7   7 1256.91  166.81   1 0.00010-0.32320 0.96354 0.46484 0.26754 0.82429
   7   7   7 1393.51  158.95   1 0.00003 0.22450 0.63414 0.97213-0.77321-0.06744
  -7   7  -7 1399.11  168.58   1 0.00010 0.32447-0.96392-0.46585-0.26616-0.82322
  -7  -7  -7 1438.06  171.59   1 0.00003-0.22228-0.63446-0.97268 0.77295 0.06687
   7  -7  -7 1526.17  180.47   1-0.53722-0.32161 0.40545-0.36833 0.73959 0.87228
   7  -7   7 1576.99  202.94   1-0.14023-0.46185 0.97111 0.47251 0.19306 0.75061
   7  -7  -8  522.57   97.69   1 0.00008 0.25420 0.55003-0.24425 0.83513 0.93579
   7  -7   8  484.99  135.46   1 0.00010-0.36164 0.97995 0.50094 0.19919 0.78629
   7   7   8  593.77  135.82   1 0.00003 0.18612 0.62375 0.98147-0.78161-0.04547
  -7   7  -8  604.52  132.64   1 0.00010 0.36324-0.98016-0.50164-0.19817-0.78511
  -7  -7  -8  563.89  134.23   1 0.00003-0.18381-0.62400-0.98193 0.78142 0.04502
   7  -7  -8  586.48  133.68   1-0.54691-0.29293 0.36603-0.42741 0.75292 0.85528
   7  -7   8  625.12  169.67   1-0.10207-0.46208 0.98479 0.50585 0.14053 0.72841
   7   7   8  545.76  115.08   1-0.31481-0.12766 0.63294 0.99142-0.70729 0.02791
   7  -9   0  441.70  120.30   1 0.00009-0.13210 0.74404-0.01185 0.66812 0.99116
  -7   9   0  481.19  121.89   1 0.00009 0.13405-0.74410 0.01194-0.66806-0.99090
  -7  -9   0  419.45  132.06   1 0.00000-0.56974-0.39666-0.71641 0.91796 0.40266
   7  -9   0  510.79  172.60   1-0.38634-0.51716 0.75355-0.00224 0.53187 0.85588
   7   9   0  448.20  123.01   1-0.31685 0.25544 0.62677 0.94613-0.71187-0.19894
   7  -9   1 4274.68  309.16   1 0.00009-0.17053 0.77567 0.03948 0.63112 0.98456
  -7   9   1 4388.36  315.45   1 0.00009 0.09563-0.71313 0.06271-0.70103-0.99343
  -7   9  -1 4350.77  315.22   1 0.00009 0.17248-0.77581-0.03957-0.63095-0.98421
  -7  -9  -1 4393.88  328.14   1 0.00001-0.53126-0.42840-0.76786 0.90358 0.35796
   7  -9  -1 5433.52  404.03   1-0.41216-0.50458 0.71285-0.06259 0.56741 0.86108
   7  -9   1 5283.27  395.87   1-0.35833-0.52753 0.79262 0.05646 0.49330 0.84765
   7   9  -1 4390.54  329.53   1-0.31627 0.29434 0.62853 0.92808-0.71057-0.22807
   7   9   1 4320.79  326.46   1-0.31839 0.21557 0.62204 0.96122-0.71532-0.17196
   7  -9   2 3244.97  189.71   1 0.00009-0.20895 0.80751 0.09103 0.58985 0.97367
  -7   9   2 3296.01  182.79   1 0.00009 0.05729-0.68338 0.11226-0.73005-0.99202
  -7   9  -2 3284.92  190.89   1 0.00009 0.21091-0.80773-0.09129-0.58954-0.97323
  -7  -9  -2 3314.08  199.25   1 0.00001-0.49277-0.45143-0.81060 0.89230 0.31636
   7  -9  -2 3982.19  227.25   1-0.43564-0.48982 0.67121-0.12387 0.59973 0.86297
   7  -9   2 4011.89  265.72   1-0.32832-0.53592 0.82939 0.11288 0.45200 0.83668
   7   9  -2 3507.37  197.43   1-0.31676 0.33219 0.62705 0.90678-0.71166-0.25959
   7   9   2 3386.50  211.56   1-0.32078 0.17485 0.61457 0.97357-0.72068-0.14690
   7  -9  -3 3571.24  179.75   1 0.00008-0.01619 0.65540-0.15985 0.75528 0.98700
   7  -9   3 3676.56  199.81   1 0.00010-0.24738 0.83895 0.14218 0.54420 0.95842
  -7   9   3 3739.79  194.28   1 0.00008 0.01887-0.65530 0.16015-0.75536-0.98691
  -7   9  -3 3789.58  200.62   1 0.00010 0.24934-0.83925-0.14260-0.54374-0.95785
  -7  -9  -3 3718.26  211.12   1 0.00001-0.45429-0.46759-0.84646 0.88394 0.27769
   7  -9  -3 4442.09  252.97   1-0.45669-0.47251 0.62938-0.18536 0.62872 0.86161
   7  -9   3 4607.21  254.66   1-0.29660-0.54258 0.86330 0.16644 0.40832 0.82334
   7   9   3 3752.55  210.99   1-0.32392 0.13338 0.60452 0.98333-0.72775-0.12354
   8   0   022552.32  800.66   1 0.00010 0.25060 0.98939 0.74017 0.14525 0.62396
  -8   0   022957.10  825.92   1 0.00010-0.24988-0.98920-0.73957-0.14656-0.62496
  -8   0   024516.54  745.89   1-0.57241-0.82378 0.22656 0.47529 0.78803 0.30897
   8   0   024479.80  633.11   1-0.15344 0.09793 0.96531 0.71680 0.21123 0.69036
   8   0  -1 8093.88  350.06   1 0.00010 0.28902 0.98168 0.71277 0.19051 0.63907
   8   0   1 8289.02  359.15   1 0.00010 0.21218 0.99516 0.76563 0.09821 0.60727
  -8   0   1 8205.79  358.22   1 0.00010-0.28830-0.98133-0.71193-0.19232-0.64033
  -8   0  -1 8198.26  365.04   1 0.00010-0.21145-0.99506-0.76521-0.09925-0.60806
  -8   0   1 8547.97  434.94   1-0.58688-0.87626 0.05277 0.32132 0.80795 0.35903
  -8   0  -1 7880.97  384.81   1-0.54380-0.75679 0.37923 0.60830 0.74864 0.23923
   8   0  -1 8758.85  381.09   1-0.21577 0.07398 0.93015 0.66199 0.29705 0.74584
   8   0   1 8310.02  365.63   1-0.09646 0.11652 0.98643 0.75757 0.13280 0.64226
   8   0  -2  198.41   82.20   1 0.00010 0.32746 0.97222 0.68362 0.23403 0.65224
   8   0   2  208.02   88.26   1 0.00010 0.17376 0.99874 0.78889 0.05002 0.58944
  -8   0   2  186.50   85.27   1 0.00010-0.32707-0.97174-0.68248-0.23603-0.65362
  -8   0  -2  205.58   94.52   1 0.00010-0.17302-0.99870-0.78863-0.05081-0.59002
  -8   0   2  235.63  107.94   1-0.58258-0.91022-0.13159 0.15712 0.80204 0.38314
  -8   0  -2  184.70   86.13   1-0.50752-0.68223 0.50422 0.71364 0.69869 0.15898
   8   0   2  285.17   82.78   1-0.04532 0.12927 0.99702 0.78781 0.06240 0.60219
   8   0  -3 7597.50  329.51   1 0.00010 0.36589 0.96140 0.65310 0.27513 0.66300
   8   0   3 7510.02  341.06   1 0.00009 0.13534 0.99999 0.80983 0.00106 0.57083
  -8   0   3 7703.40  335.62   1 0.00010-0.36549-0.96073-0.65169-0.27745-0.66460
  -8   0  -3 7420.07  347.44   1 0.00009-0.13459-0.99999-0.80969-0.00160-0.57120
  -8   0   3 8199.96  420.79   1-0.55867-0.92475-0.31037-0.00196 0.76912 0.38055
  -8   0  -3 7013.86  332.89   1-0.46900-0.60534 0.60260 0.79236 0.64567 0.07560
   8   0   3 7481.57  326.29   1 0.00032 0.13653 1.00000 0.81044-0.00044 0.56968
   8   0  -414205.30  413.05   1 0.00010 0.40433 0.94963 0.62164 0.31336 0.67087
   8   0   413925.67  426.33   1 0.00009 0.09692 0.99883 0.82834-0.04835 0.55176
  -8   0   414790.18  422.85   1 0.00010-0.40391-0.94876-0.61993-0.31598-0.67270
  -8   0   415523.05  537.72   1-0.51953-0.92385-0.46745-0.13896 0.71523 0.35663
  -8   0  -412656.69  422.35   1-0.43207-0.53003 0.67785 0.84795 0.59482-0.00558
   8   0   414043.79  405.33   1 0.04117 0.13899 0.99754 0.82764-0.05668 0.54377
   8   0  -5 8494.42  356.22   1 0.00010 0.44276 0.93739 0.58971 0.34825 0.67541
   8   0   5 8289.34  373.59   1 0.00009 0.05850 0.99519 0.84439-0.09795 0.53251
  -8   0   5 8696.36  367.42   1 0.00010-0.44233-0.93631-0.58768-0.35116-0.67746
  -8   0   5 9431.08  464.81   1-0.47103-0.91382-0.59802-0.24981 0.64845 0.32018
   8   0   5 8241.89  364.35   1 0.07798 0.13741 0.99115 0.84090-0.10735 0.52344
  -8   0   6  139.39  100.62   1 0.00004-0.48206 0.17516 0.54214 0.98453 0.68825
   8   0  -6  109.00   77.59   1 0.00010 0.48120 0.92524 0.55786 0.37937 0.67618
   8   0   6  147.95  109.18   1 0.00009 0.02041 0.98908 0.85803-0.14738 0.51318
  -8   0   6  120.58   70.96   1 0.00010-0.48076-0.92392-0.55550-0.38257-0.67843
  -8   0  -6  108.14  109.98   1 0.00009-0.01903-0.98906-0.85808 0.14749-0.51315
  -8   0   7 4622.71  344.98   1 0.00003-0.52057 0.05147 0.43816 0.99867 0.73281
   8   0   7 4192.44  255.00   1 0.00009-0.01796 0.98047 0.86912-0.19666 0.49425
  -8   0   7 4694.59  254.34   1 0.00010-0.51918-0.91219-0.52398-0.40975-0.67519
  -8   0  -7 4334.91  265.58   1 0.00009 0.01941-0.98042-0.86918 0.19691-0.49410
  -8   0   811180.71  608.84   1 0.00010-0.55760-0.90172-0.49372-0.43230-0.66731
  -8   0  -810364.10  567.17   1 0.00008 0.05786-0.96930-0.87780 0.24587-0.47551
   8   0   8 8594.75  477.98   1-0.11394-0.17027 0.95993 0.86855-0.25600 0.46542
  -8   0   9 7373.67  254.65   1 0.00010-0.59602-0.89312-0.46533-0.44980-0.65437
  -8   0  -9 6592.46  272.93   1 0.00008 0.09631-0.95572-0.88396 0.29425-0.45751
   8   0  10    5.44  117.47   1 0.00008-0.13309 0.93995 0.88771-0.34129 0.44072
  -8   0 -10  248.64  132.38   1 0.00008 0.13476-0.93973-0.88771 0.34190-0.44023
   8   0  10   51.18  102.51   1-0.16568-0.29878 0.91323 0.86174-0.37222 0.41002
   8   0  11 2698.20  239.67   1 0.00007-0.17147 0.92164 0.88911-0.38803 0.42435
  -8   0 -11 2993.10  262.79   1 0.00007 0.17374-0.92136-0.88910 0.38870-0.42344
   8   0  11 2442.16  212.38   1-0.19190-0.36336 0.88163 0.84994-0.43114 0.38152
   8  -2   0 8022.75  346.18   1 0.00010 0.17246 0.93814 0.56936 0.34623 0.80379
   8   2   0 8320.79  372.91   1 0.00009 0.32880 0.99304 0.86351-0.11769 0.38240
  -8   2   0 8110.67  352.71   1 0.00010-0.17181-0.93774-0.56859-0.34733-0.80447
  -8  -2   0 8356.02  374.40   1 0.00009-0.32803-0.99321-0.86331 0.11632-0.38350
  -8  -2   0 9154.71  452.95   1-0.57986-0.90884 0.16276 0.29208 0.79829 0.29780
  -8   2   0 8442.96  425.72   1-0.57530-0.74868 0.20425 0.57256 0.79202 0.33412
   8  -2   0 9116.84  395.31   1-0.29001-0.11658 0.86975 0.50160 0.39926 0.85720
   8  -2  -1 3935.08  211.53   1 0.00010 0.21089 0.91926 0.53078 0.39363 0.82084
   8  -2   1 3960.32  223.34   1 0.00010 0.13403 0.95514 0.60604 0.29614 0.78405
   8   2  -1 4064.61  225.50   1 0.00009 0.36722 0.99632 0.84710-0.08561 0.38412
   8   2   1 3978.05  220.65   1 0.00009 0.29051 0.98855 0.87854-0.15088 0.37916
  -8   2   1 4071.14  221.01   1 0.00010-0.21023-0.91869-0.52975-0.39497-0.82168
  -8   2  -1 3955.87  222.29   1 0.00010-0.13339-0.95487-0.60552-0.29700-0.78456
  -8  -2   1 3877.46  234.43   1 0.00009-0.36648-0.99646-0.84683 0.08402-0.38544
  -8  -2  -1 3824.03  231.71   1 0.00009-0.28958-0.98865-0.87849 0.15022-0.37998
  -8  -2   1 4028.49  265.75   1-0.57788-0.94516-0.18202-0.03255 0.79556 0.32497
  -8   2   1 4054.40  276.41   1-0.58570-0.79710 0.08223 0.47035 0.80633 0.37867
  -8   2  -1 3675.36  244.42   1-0.55747-0.69247 0.31657 0.66522 0.76746 0.27922
  -8  -2  -1 3969.63  253.24   1-0.53417-0.82516 0.41696 0.52645 0.73539 0.20482
   8  -2  -1 4300.52  243.61   1-0.33896-0.12714 0.81690 0.42909 0.46665 0.89426
   8  -2   1 4222.36  238.57   1-0.24014-0.10511 0.91270 0.56421 0.33060 0.81890
  -8  -2   2 8453.21  320.81   1 0.00009-0.40625 0.70303 0.87226 0.71115 0.27222
   8  -2  -2 7790.36  271.26   1 0.00010 0.24959 0.89887 0.49061 0.43821 0.83486
   8  -2   2 7890.92  298.33   1 0.00010 0.09559 0.96982 0.64042 0.24378 0.76204
   8   2  -2 8307.62  299.89   1 0.00009 0.40564 0.99845 0.82954-0.05559 0.38379
   8   2   2 8276.21  297.05   1 0.00009 0.25213 0.98257 0.89226-0.18586 0.37454
   8   2  -2 8151.71  290.02   1 0.00009 0.40563-0.70266-0.87246-0.71151-0.27252
  -8   2   2 8500.53  303.64   1 0.00010-0.24865-0.89823-0.48950-0.43951-0.83579
  -8  -2   2 7780.88  298.66   1 0.00009-0.40515-0.99857-0.82891 0.05331-0.38567
  -8  -2  -2 7668.77  301.77   1 0.00009-0.25112-0.98267-0.89225 0.18533-0.37524
  -8  -2   2 8249.27  348.73   1-0.48328-0.88878-0.56900-0.39949 0.66533 0.22463
  -8   2   2 9601.04  429.98   1-0.58707-0.83686-0.04607 0.36170 0.80821 0.41087
  -8  -2  -2 7473.59  298.82   1-0.47419-0.72689 0.59073 0.68056 0.65281 0.09194
   8  -2  -2 9006.11  319.98   1-0.38543-0.13522 0.75490 0.34744 0.53062 0.92789
   8  -2   2 8586.65  320.06   1-0.19080-0.09415 0.94583 0.61699 0.26267 0.78131
  -8  -2   3 2333.44  173.32   1 0.00008-0.44472 0.62617 0.81511 0.77968 0.37122
   8  -2  -3 1909.58  139.77   1 0.00010 0.28802 0.87771 0.44975 0.47918 0.84543
   8  -2   3 1937.61  149.69   1 0.00010 0.05715 0.98186 0.67215 0.18959 0.73820
   8   2  -3 1951.06  144.01   1 0.00009 0.44406 0.99960 0.81101-0.02817 0.38087
   8   2   3 1888.18  145.57   1 0.00008 0.21376 0.97510 0.90450-0.22174 0.36903
  -8   2   3 2007.99  149.09   1 0.00010-0.28707-0.87692-0.44840-0.48062-0.84647
  -8   2  -3 1776.93  153.09   1 0.00010-0.05617-0.98172-0.67191-0.19027-0.73849
  -8  -2   3 1907.77  146.31   1 0.00009-0.44358-0.99967-0.81023 0.02552-0.38307
  -8  -2  -3 1905.61  162.85   1 0.00008-0.21267-0.97519-0.90451 0.22134-0.36961
  -8   2   3 2272.46  215.22   1-0.57870-0.86670-0.17428 0.25370 0.79669 0.42948
   8  -2  -3 2202.10  159.07   1-0.42800-0.13942 0.68528 0.25799 0.58923 0.95603
  -8  -2  -3 1824.56  142.47   1-0.41646-0.63079 0.70557 0.77574 0.57334-0.01787
   8  -2   3 2062.86  158.59   1-0.14296-0.08470 0.96996 0.66077 0.19681 0.74578
   8  -2  -4 7414.74  329.25   1 0.00010 0.32645 0.85631 0.40864 0.51645 0.85231
   8  -2   4 7477.74  346.36   1 0.00010 0.01872 0.99092 0.70076 0.13440 0.71314
   8   2  -4 7560.00  342.36   1 0.00009 0.48248 0.99999 0.79171-0.00400 0.37468
   8   2   4 7100.06  345.10   1 0.00008 0.17538 0.96607 0.91517-0.25824 0.36289
  -8   2   4 7454.42  328.79   1 0.00010-0.32543-0.85543-0.40711-0.51790-0.85343
  -8   2  -4 7370.89  346.02   1 0.00010-0.01775-0.99092-0.70088-0.13444-0.71305
  -8  -2   4 7695.66  353.39   1 0.00009-0.48201-1.00000-0.79079 0.00095-0.37724
  -8  -2  -4 7385.09  361.98   1 0.00008-0.17422-0.96615-0.91521 0.25797-0.36335
  -8   2   4 8557.64  456.72   1-0.56109-0.88753-0.29747 0.15019 0.77244 0.43557
   8  -2  -4 8666.72  389.47   1-0.46504-0.13808 0.61143 0.16448 0.64021 0.97666
  -8  -2  -4 6818.06  321.11   1-0.36652-0.54229 0.78170 0.83199 0.50458-0.11701
   8  -2   4 7732.16  358.97   1-0.09725-0.07738 0.98621 0.69668 0.13388 0.71319
   8  -2  -5 3401.05  194.93   1 0.00010 0.36487 0.83528 0.36789 0.54981 0.85528
   8  -2   5 3479.79  217.28   1 0.00010-0.01969 0.99696 0.72649 0.07780 0.68689
   8   2   5 3442.16  213.17   1 0.00008 0.13701 0.95545 0.92424-0.29514 0.35635
  -8   2   5 3467.62  199.03   1 0.00010-0.36386-0.83425-0.36613-0.55137-0.85647
  -8   2  -5 3600.78  229.90   1 0.00010 0.02067-0.99698-0.72671-0.07761-0.68662
  -8  -2   5 3696.40  220.46   1 0.00010-0.52044-0.99980-0.77082-0.01957-0.36737
  -8  -2  -5 3668.76  229.91   1 0.00008-0.13577-0.95549-0.92429 0.29499-0.35670
  -8   2   5 4081.74  296.32   1-0.53590-0.90056-0.41046 0.05729 0.73777 0.43092
   8  -2  -5 3886.66  220.31   1-0.49602-0.13068 0.53632 0.06971 0.68287 0.98896
  -8  -2  -5 3196.23  193.19   1-0.32614-0.46353 0.83187 0.86252 0.44900-0.20293
   8  -2   5 3599.63  224.78   1-0.05399-0.07251 0.99577 0.72588 0.07433 0.68397
   8   2   5 2988.54  195.25   1-0.12013 0.01711 0.95536 0.92421-0.26989 0.38147
   8  -2  -6 6027.00  296.08   1 0.00009 0.40330 0.81523 0.32813 0.57913 0.85420
   8   2   6 6361.04  333.27   1 0.00008 0.09863 0.94318 0.93168-0.33225 0.34961
  -8   2   6 6334.06  312.20   1 0.00009-0.40228-0.81406-0.32613-0.58077-0.85545
  -8  -2   6 6553.12  341.55   1 0.00010-0.55887-0.99938-0.75063-0.03504-0.35244
  -8   2  -6 6655.78  346.54   1 0.00010 0.05910-0.99979-0.74930-0.02017-0.65958
   8  -2   6 6127.86  317.80   1-0.01327-0.07018 0.99974 0.74951 0.01827 0.65825
   8   2   6 5424.45  296.02   1-0.13913-0.04032 0.93964 0.92848-0.31257 0.36917
   8  -2  -7 2554.29  180.94   1 0.00009 0.44173 0.79673 0.28992 0.60433 0.84900
   8   2   7 2433.49  196.90   1 0.00008 0.06025 0.92926 0.93746-0.36941 0.34282
  -8   2   7 2534.23  186.53   1 0.00009-0.44071-0.79543-0.28770-0.60604-0.85029
  -8  -2   7 2727.36  207.03   1 0.00010-0.59730-0.99902-0.73049-0.04405-0.33105
  -8   2  -7 2489.34  214.87   1 0.00009 0.09753-0.99929-0.76857 0.03752-0.63227
   8  -2   7 2494.04  204.07   1 0.02496-0.07033 0.99909 0.76852-0.03436 0.63594
   8   2   7 2163.87  189.36   1-0.15863-0.09818 0.92076 0.92939-0.35639 0.35578
   8  -2   8 5412.85  247.20   1 0.00009-0.13496 0.99553 0.78411-0.09437 0.60576
   8   2   8 5681.19  245.36   1 0.00007 0.02188 0.91366 0.94156-0.40647 0.33612
  -8   2   8 5858.66 2034.71   1 0.00009-0.47914-0.77889-0.25137-0.62714-0.84097
  -8   2  -8 5922.12  266.30   1 0.00009 0.13614-0.99548-0.78447 0.09493-0.60503
  -8  -2  -8 6265.18  272.32   1 0.00007-0.01977-0.91357-0.94166 0.40667-0.33596
  -8  -2  -8 5257.22 1949.40   1-0.29978-0.31946-0.86011-0.88782 0.41270-0.33123
   8  -2   8 5826.39  244.45   1 0.06086-0.07282 0.99462 0.78369-0.08379 0.61685
   8   2   8 5125.33  236.98   1-0.17859-0.15650 0.89839 0.92681-0.40124 0.34136
   8  -2   9 1605.91  156.74   1 0.00009-0.17294 0.98844 0.79696-0.15160 0.57874
   8   2   9 1777.35  162.77   1 0.00007-0.01658 0.89633 0.94397-0.44337 0.32959
  -8   2   9 1764.76  128.92   1 0.00009-0.51756-0.76493-0.21760-0.64411-0.82751
  -8   2  -9 1677.48  144.66   1 0.00009 0.17459-0.98834-0.79706 0.15224-0.57809
  -8  -2  -9 1779.01  168.92   1 0.00007 0.01870-0.89622-0.94402 0.44360-0.32934
  -8  -2  -9 1574.07  165.00   1-0.31444-0.29561-0.84482-0.89225 0.43289-0.34132
   8  -2   9 1791.87  151.98   1 0.09461-0.07747 0.98695 0.79568-0.13024 0.60073
   8   2   9 1593.30  154.49   1-0.19886-0.21513 0.87226 0.92047-0.44677 0.32626
   8  -2  10 3308.14  242.25   1 0.00009-0.21132 0.97807 0.80629-0.20824 0.55247
  -8   2  10 3910.69  274.37   1 0.00009-0.55599-0.75393-0.18680-0.65694-0.80992
  -8   2 -10 3803.61  303.65   1 0.00009 0.21304-0.97791-0.80637 0.20901-0.55169
  -8  -2 -10 3578.15  282.26   1 0.00007 0.05717-0.87714-0.94465 0.48022-0.32304
  -8  -2 -10 3110.79  276.15   1-0.32910-0.27202-0.82850-0.89580 0.45307-0.35148
   8  -2  10 3051.74  251.22   1-0.10771-0.31924 0.96428 0.79289-0.24199 0.51903
   8   2  10 3323.08  235.77   1-0.21927-0.27391 0.84214 0.91014-0.49264 0.31081
   8  -2  11 1819.33  168.92   1 0.00008-0.24970 0.96447 0.81240-0.26415 0.52692
  -8   2 -11 1832.07  175.01   1 0.00008 0.25149-0.96423-0.81243 0.26506-0.52602
  -8  -2 -11 1952.07  166.68   1 0.00006 0.09565-0.85632-0.94353 0.51643-0.31715
  -8  -2 -11 1758.77  187.07   1-0.34336-0.24778-0.81156-0.89859 0.47271-0.36213
   8  -2  11 1741.83  165.33   1-0.13998-0.38991 0.93887 0.78770-0.31450 0.47696
   8   2  11 1569.63  149.44   1-0.23980-0.33262 0.80760 0.89587-0.53877 0.29457
   8  -4   0 8656.78  374.93   1 0.00010 0.09460 0.87708 0.38875 0.48033 0.91647
   8   4   0 8783.22  380.73   1 0.00007 0.40711 0.91573 0.90556-0.40178 0.11920
  -8  -4   0 8252.25  395.51   1 0.00007-0.40567-0.91611-0.90602 0.40092-0.12062
   8  -4   0 9290.80  411.97   1-0.34631-0.25083 0.80793 0.32014 0.47677 0.91355
   8   4   0 7960.52  367.14   1-0.13231 0.27511 0.94557 0.93516-0.29727 0.22312
   8  -4  -1 8346.08  372.01   1 0.00010 0.13302 0.85181 0.34378 0.52383 0.92957
   8  -4   1 8290.90  367.70   1 0.00010 0.05617 0.90125 0.43263 0.43328 0.89981
   8   4  -1 8067.32  368.46   1 0.00007 0.44548 0.91976 0.88989-0.39247 0.09815
   8   4   1 8164.41  365.08   1 0.00007 0.36866 0.90997 0.91945-0.41467 0.13673
  -8   4   1 8445.11  370.50   1 0.00010-0.13172-0.85137-0.34298-0.52456-0.93006
  -8   4  -1 8008.46  369.25   1 0.00010-0.05497-0.90097-0.43215-0.43386-0.90012
  -8  -4   1 8103.76  381.79   1 0.00007-0.44415-0.92017-0.89038 0.39149-0.09973
  -8  -4  -1 8363.23  401.99   1 0.00007-0.36720-0.91025-0.91987 0.41404-0.13782
   8  -4  -1 9339.26  414.11   1-0.38431-0.25044 0.75655 0.24911 0.52907 0.93553
   8  -4   1 8712.37  398.18   1-0.30605-0.24895 0.85370 0.38556 0.42133 0.88846
   8   4  -1 7148.87  328.22   1-0.12356 0.32233 0.95271 0.92248-0.27761 0.21239
   8   4   1 7206.86  350.72   1-0.14231 0.22675 0.93676 0.94613-0.31972 0.23109
  -8  -4   2 5221.07  278.70   1 0.00010-0.48381 0.81782 0.86759 0.57546 0.11490
   8  -4  -2 4657.07  256.92   1 0.00010 0.17145 0.82604 0.29830 0.56359 0.93894
   8  -4   2 4518.74  259.09   1 0.00010 0.01746 0.92373 0.47476 0.38304 0.87993
   8   4  -2 4697.38  263.47   1 0.00007 0.48385 0.92171 0.87214-0.38786 0.07240
   8   4   2 4712.58  266.55   1 0.00007 0.33028 0.90251 0.93170-0.43065 0.15110
  -8   4   2 4874.08  265.39   1 0.00010-0.17015-0.82547-0.29729-0.56443-0.93950
  -8   4  -2 5105.96  283.99   1 0.00010-0.01655-0.92358-0.47455-0.38338-0.88006
  -8  -4   2 4621.91  282.04   1 0.00007-0.48263-0.92218-0.87267 0.38675-0.07416
  -8  -4  -2 4611.44  281.88   1 0.00007-0.32872-0.90277-0.93210 0.43010-0.15207
   8  -4  -2 5289.24  282.21   1-0.41937-0.24715 0.70056 0.17334 0.57734 0.95334
   8  -4   2 4967.73  296.80   1-0.26429-0.24561 0.89317 0.44470 0.36385 0.86134
   8   4  -2 4192.70  244.80   1-0.11616 0.36809 0.95832 0.90833-0.26099 0.19857
   8   4   2 4207.26  244.14   1-0.15339 0.17731 0.92612 0.95528-0.34462 0.23662
  -8  -4   3 9987.56  473.41   1 0.00009-0.52224 0.75199 0.82147 0.65917 0.22900
   8  -4  -3 8730.61  392.97   1 0.00009 0.20987 0.80037 0.25292 0.59949 0.94444
   8  -4   3 8551.30  403.42   1 0.00010-0.02096 0.94404 0.51476 0.32982 0.85707
   8   4   3 9426.35  437.21   1 0.00007 0.29191 0.89353 0.94243-0.44900 0.16312
  -8   4   3 9597.05  438.40   1 0.00009-0.20857-0.79968-0.25169-0.60041-0.94506
  -8   4  -3 9798.33  450.12   1 0.00010 0.02187-0.94400-0.51475-0.32994-0.85705
  -8  -4   3 8619.75  431.99   1 0.00007-0.52111-0.92163-0.85242 0.38804-0.04255
  -8  -4  -3 8754.54  429.61   1 0.00007-0.29024-0.89376-0.94279 0.44852-0.16397
  -8  -4  -3 7795.21  660.78   1-0.47132-0.76255-0.59735-0.64596 0.64886 0.03510
   8  -4  -3 9826.21  465.05   1-0.45068-0.24008 0.64181 0.09493 0.62045 0.96609
   8  -4   3 9276.01  445.60   1-0.22192-0.24162 0.92596 0.49714 0.30551 0.83334
   8   4  -3 8093.45  397.19   1-0.11026 0.41237 0.96253 0.89277-0.24772 0.18140
   8   4   3 8280.83  405.85   1-0.16544 0.12690 0.91349 0.96244-0.37169 0.23998
   8  -4  -4 7665.67  353.43   1 0.00009 0.24830 0.77539 0.20822 0.63147 0.94603
   8   4   4 8153.88  404.25   1 0.00007 0.25353 0.88307 0.95168-0.46923 0.17324
  -8   4   4 8320.34  395.19   1 0.00009-0.24700-0.77458-0.20679-0.63247-0.94669
  -8   4  -4 8465.79  407.16   1 0.00010 0.06029-0.96175-0.55230-0.27391-0.83146
  -8  -4   4 7615.86  396.91   1 0.00007-0.55959-0.91768-0.82876 0.39731-0.00297
  -8  -4  -4 7903.03  411.90   1 0.00007-0.25177-0.88328-0.95202 0.46883-0.17397
  -8  -4  -4 7105.01  387.20   1-0.44999-0.70205-0.64321-0.71169 0.61949-0.02477
   8  -4  -4 8832.77  421.06   1-0.47796-0.22899 0.58186 0.01532 0.65801 0.97330
   8  -4   4 8394.99  416.09   1-0.17958-0.23767 0.95216 0.54300 0.24723 0.80539
   8   4   4 7361.24  393.40   1-0.17832 0.07566 0.89871 0.96745-0.40064 0.24146
   8  -4  -5 7209.80  387.02   1 0.00009 0.28673 0.75164 0.16476 0.65957 0.94373
   8   4   5 7160.24  407.47   1 0.00007 0.21515 0.87117 0.95949-0.49097 0.18186
  -8   4   5 7177.81  393.71   1 0.00009-0.28543-0.75072-0.16313-0.66061-0.94441
  -8   4  -5 7372.01  425.26   1 0.00010 0.09908-0.97635-0.58657-0.21618-0.80380
  -8  -4   5 7428.61  440.47   1 0.00007-0.59807-0.90865-0.80002 0.41754 0.04757
  -8  -4  -5 7506.68  440.81   1 0.00007-0.21329-0.87135-0.95979 0.49065-0.18247
  -8  -4  -5 6743.02  413.68   1-0.43777-0.65132-0.66719-0.75538 0.60267-0.07188
   8  -4  -5 8151.05  450.06   1-0.50110-0.21376 0.52247-0.06371 0.68986 0.97480
   8  -4   5 7923.48  454.57   1-0.13783-0.23431 0.97210 0.58259 0.18975 0.77825
   8  -4  -6 2489.76  138.17   1 0.00009 0.32590 0.72937 0.12266 0.68411 0.93741
   8  -4   6 2385.20  171.81   1 0.00010-0.13627 0.98769 0.61750 0.15637 0.77467
   8   4   6 2683.18  179.32   1 0.00006 0.17678 0.85784 0.96587-0.51391 0.18929
  -8   4   6 2634.82  154.22   1 0.00009-0.32386-0.72859-0.12120-0.68494-0.93830
  -8   4  -6 2705.73  179.32   1 0.00010 0.13751-0.98771-0.61771-0.15626-0.77428
  -8  -4  -6 2551.94  189.07   1 0.00006-0.17481-0.85798-0.96613 0.51367-0.18977
  -8  -4  -6 2337.91  187.31   1-0.43113-0.60617-0.67957-0.78750 0.59354-0.11130
   8  -4  -6 2773.23  175.38   1-0.52017-0.19453 0.46539-0.14046 0.71611 0.97078
   8  -4   6 2672.82  183.06   1-0.09709-0.23196 0.98625 0.61639 0.13366 0.75249
   8   4   6 2403.74  168.00   1-0.20610-0.02882 0.86204 0.97036-0.46303 0.23992
   8  -4  -7 5392.49  189.92   1 0.00009 0.36436 0.70949 0.08306 0.70471 0.92754
   8  -4   7 5572.41  242.11   1 0.00010-0.17474 0.99539 0.64460 0.09586 0.74427
   8   4   7 6407.02  256.80   1 0.00006 0.13840 0.84308 0.97083-0.53777 0.19578
  -8   4   7 6142.74  218.36   1 0.00009-0.36228-0.70865-0.08146-0.70555-0.92850
  -8   4  -7 6641.42  265.24   1 0.00010 0.17594-0.99547-0.64524-0.09501-0.74343
  -8  -4  -7 6015.32  298.44   1 0.00006-0.13634-0.84319-0.97104 0.53761-0.19615
  -8  -4  -7 5364.01  264.37   1-0.42839-0.56492-0.68459-0.81223 0.58975-0.14537
   8  -4  -7 6426.78  253.91   1-0.53559-0.17157 0.41163-0.21387 0.73735 0.96167
   8  -4   7 6030.99  250.81   1-0.05762-0.23088 0.99518 0.64497 0.07932 0.72849
   8   4   7 5934.46  255.53   1-0.22074-0.08182 0.83983 0.96794-0.49593 0.23746
   8  -4  -8 6062.39  311.21   1 0.00009 0.40281 0.69214 0.04600 0.72175 0.91412
   8  -4   8 5499.61  318.49   1 0.00010-0.21316 0.99942 0.66831 0.03391 0.71267
   8   4   8 6109.03  338.37   1 0.00006 0.10002 0.82690 0.97435-0.56234 0.20156
  -8   4   8 5967.63  315.35   1 0.00009-0.40064-0.69121-0.04416-0.72264-0.91516
  -8   4  -8 6194.59  345.46   1 0.00010 0.21437-0.99945-0.66900-0.03285-0.71167
  -8  -4  -8 5644.20  347.08   1-0.42844-0.52646-0.68449-0.83186 0.58982-0.17559
   8  -4  -8 6556.24  352.34   1-0.54776-0.14537 0.36232-0.28285 0.75410 0.94808
   8  -4   8 6149.02  346.40   1-0.01959-0.23124 0.99944 0.66888 0.02698 0.70648
   8   4   8 5698.22  337.47   1-0.23572-0.13516 0.81483 0.96273-0.52959 0.23422
   8  -4  -9 4697.84  307.70   1 0.00009 0.44127 0.67764 0.01178 0.73539 0.89729
   8  -4   9 4442.89  321.65   1 0.00009-0.25158 0.99959 0.68816-0.02857 0.68053
   8   4   9 4913.59  356.25   1 0.00006 0.06165 0.80926 0.97643-0.58744 0.20683
  -8   4   9 4729.74  321.06   1 0.00009-0.43907-0.67665-0.00979-0.73630-0.89839
  -8   4  -9 4713.93  334.18   1 0.00009 0.25280-0.99955-0.68887 0.02984-0.67937
  -8  -4  -9 4577.17  353.14   1-0.43056-0.49007-0.68063-0.84772 0.59275-0.20296
   8  -4   9 5088.37  362.49   1 0.01690-0.23313 0.99958 0.68868-0.02327 0.68655
   8   4   9 4173.56  311.38   1-0.25100-0.18865 0.78675 0.95480-0.56392 0.22969
   8  -4  10 1654.69  177.24   1 0.00009-0.29000 0.99582 0.70408-0.09127 0.64819
   8   4  10 1965.08  165.93   1 0.00005 0.02327 0.79017 0.97704-0.61288 0.21175
  -8   4  10 1818.33  127.82   1 0.00009-0.47749-0.66516 0.02150-0.74669-0.87836
  -8   4 -10 1909.88  172.75   1 0.00009 0.29132-0.99572-0.70467 0.09232-0.64696
  -8  -4 -10 2055.85  182.19   1 0.00005-0.02091-0.79011-0.97709 0.61295-0.21176
  -8  -4 -10 1750.56  175.08   1-0.43425-0.45525-0.67381-0.86062 0.59783-0.22817
   8  -4  10 1902.02  173.44   1 0.05187-0.23655 0.99609 0.70484-0.07141 0.66875
   8   4  10 1775.18  170.03   1-0.26631-0.24228 0.75571 0.94357-0.59830 0.22574
   8  -6   0 2532.38  164.84   1 0.00010 0.01645 0.82819 0.22036 0.56044 0.97527
  -8   6   0 2533.96  170.43   1 0.00010-0.01486-0.82795-0.21990-0.56079-0.97540
  -8  -6   0 2449.24  178.38   1 0.00005-0.48378-0.75907-0.86849 0.65100 0.10802
   8  -6   0 2743.52  183.61   1-0.36689-0.34936 0.78119 0.17376 0.50510 0.92073
   8   6   0 2246.11  154.97   1-0.21347 0.27241 0.85111 0.96017-0.47961 0.06199
   8  -6  -1 2462.54  154.89   1 0.00009 0.05488 0.80082 0.17329 0.59890 0.98334
   8  -6   1 2429.16  162.87   1 0.00010-0.02196 0.85527 0.26716 0.51817 0.96340
   8   6   1 2517.85  166.81   1 0.00005 0.44689 0.76249 0.89149-0.64699-0.07428
  -8   6   1 2230.30  161.83   1 0.00009-0.05329-0.80048-0.17263-0.59935-0.98354
  -8   6  -1 2562.90  166.99   1 0.00010 0.02355-0.85513-0.26688-0.51840-0.96344
  -8  -6   1 2423.39  176.69   1 0.00005-0.52226-0.74999-0.83970 0.66144 0.14878
  -8  -6  -1 2435.17  188.61   1 0.00005-0.44530-0.76329-0.89241 0.64605 0.07275
   8  -6  -1 2666.79  185.81   1-0.39809-0.34217 0.73563 0.10856 0.54804 0.93334
   8  -6   1 2586.37  193.33   1-0.33339-0.35425 0.82352 0.23574 0.45897 0.90494
   8   6  -1 2206.08  153.70   1-0.20847 0.31578 0.85858 0.94786-0.46836 0.04281
   8   6   1 2200.30  155.42   1-0.21960 0.22793 0.84163 0.97049-0.49337 0.07866
   8  -6  -2 5666.54  214.33   1 0.00009 0.09331 0.77372 0.12647 0.63352 0.98757
   8   6   2 6138.79  243.94   1 0.00005 0.40851 0.76300 0.91172-0.64639-0.04331
  -8   6  -2 6214.10  242.25   1 0.00010 0.06186-0.88138-0.31287-0.47240-0.94777
  -8  -6  -2 5575.80  258.64   1 0.00005-0.40682-0.76371-0.91254 0.64555 0.04194
  -8  -6   2 5618.54  314.75   1 0.00005-0.56074-0.73434-0.80434 0.67877 0.19643
   8  -6  -2 6263.68  262.73   1-0.42667-0.33244 0.68769 0.04088 0.58739 0.94223
   8  -6   2 6128.57  268.56   1-0.29803-0.35727 0.86187 0.29375 0.41029 0.88660
   8   6  -2 5431.23  230.24   1-0.20471 0.35790 0.86403 0.93352-0.45992 0.02083
   8   6   2 5526.13  255.46   1-0.22671 0.18246 0.83015 0.97879-0.50936 0.09310
   8  -6  -3 2423.21  148.01   1 0.00009 0.13173 0.74741 0.08045 0.66436 0.98801
   8   6   3 2686.39  172.36   1 0.00005 0.37018 0.76060 0.92882-0.64921-0.01574
  -8   6   3 2600.60  164.96   1 0.00009-0.13015-0.74686-0.07941-0.66497-0.98830
  -8   6  -3 2675.79  184.32   1 0.00010 0.10028-0.90627-0.35756-0.42268-0.92848
  -8  -6  -3 2441.21  181.96   1 0.00005-0.36835-0.76103-0.92956 0.64871 0.01478
  -8  -6   3 2447.70  186.03   1 0.00004-0.59922-0.70928-0.75958 0.70492 0.25289
   8  -6  -3 2795.51  179.84   1-0.45226-0.31966 0.63858-0.02788 0.62263 0.94712
   8  -6   3 2747.82  199.64   1-0.26125-0.35891 0.89575 0.34730 0.35967 0.86634
   8   6  -3 2392.07  162.00   1-0.20234 0.39862 0.86740 0.91710-0.45460-0.00427
   8   6   3 2293.35  154.68   1-0.23470 0.13611 0.81661 0.98505-0.52730 0.10559
   8  -6  -4  988.02  108.79   1 0.00009 0.17086 0.72219 0.03537 0.69168 0.98465
   8  -6   4  945.85  132.40   1 0.00010-0.13752 0.92905 0.39990 0.36993 0.90617
   8   6   4 1073.67  128.85   1 0.00005 0.33181 0.75537 0.94330-0.65529 0.00853
  -8   6   4 1000.46  123.27   1 0.00009-0.16857-0.72172-0.03447-0.69217-0.98508
  -8   6  -4 1057.01  139.25   1 0.00010 0.13871-0.92918-0.40026-0.36960-0.90584
  -8  -6  -4 1058.52  147.59   1 0.00005-0.32987-0.75573-0.94397 0.65487-0.00937
   8  -6  -4 1186.30  138.33   1-0.47480-0.30382 0.58931-0.09680 0.65365 0.94779
   8  -6   4 1119.26  156.14   1-0.22363-0.35968 0.92476 0.39597 0.30787 0.84488
   8   6  -4  956.33  125.26   1-0.20152 0.43781 0.86855 0.89846-0.45276-0.03286
   8  -6  -5 2428.84  169.15   1 0.00009 0.20932 0.69880-0.00773 0.71530 0.97781
   8  -6   5 2306.13  185.94   1 0.00010-0.17596 0.94941 0.43996 0.31401 0.88060
   8   6   5 2756.08  198.87   1 0.00005 0.29343 0.74784 0.95549-0.66387 0.03032
  -8   6   5 2514.84  184.22   1 0.00009-0.20692-0.69826 0.00882-0.71583-0.97831
  -8   6  -5 2555.75  194.85   1 0.00010 0.17713-0.94960-0.44047-0.31345-0.88011
  -8  -6  -5 2653.76  218.20   1 0.00005-0.29139-0.74815-0.95609 0.66352-0.03103
   8  -6  -5 2802.10  210.50   1-0.49428-0.28493 0.54094-0.16483 0.68048 0.94426
   8  -6   5 2706.62  225.75   1-0.18558-0.36002 0.94883 0.43968 0.25549 0.82283
   8   6   5 2394.67  205.31   1-0.25288 0.04129 0.78311 0.99130-0.56813 0.12490
   8  -6  -6 2995.75  188.24   1 0.00009 0.24778 0.67747-0.04878 0.73554 0.96758
   8  -6   6 2782.67  208.46   1 0.00010-0.21439 0.96684 0.47707 0.25536 0.85230
   8   6   6 3421.49  234.92   1 0.00005 0.25506 0.73826 0.96562-0.67451 0.05004
  -8   6   6 3257.72  211.87   1 0.00009-0.24535-0.67688 0.05001-0.73608-0.96814
  -8   6  -6 3282.25  215.81   1 0.00010 0.21555-0.96705-0.47771-0.25456-0.85166
  -8  -6  -6 3164.16  232.80   1 0.00005-0.25291-0.73850-0.96616 0.67424-0.05063
   8  -6  -6 3450.63  231.63   1-0.51084-0.26311 0.49442-0.23100 0.70326 0.93670
   8  -6   6 3312.43  252.42   1-0.14750-0.36033 0.96798 0.47849 0.20307 0.80075
   8  -6  -7 1003.29  117.00   1 0.00008 0.28623 0.65849-0.08747 0.75258 0.95415
   8  -6   7  967.48  149.98   1 0.00010-0.25283 0.98093 0.51086 0.19435 0.82164
   8   6   7 1035.14  146.38   1 0.00005 0.21669 0.72678 0.97386-0.68686 0.06805
  -8   6   7 1014.20  126.01   1 0.00008-0.28377-0.65786 0.08883-0.75313-0.95476
  -8   6  -7 1102.43  154.40   1 0.00010 0.25435-0.98102-0.51128-0.19387-0.82090
  -8  -6  -7 1061.60  160.90   1 0.00005-0.21444-0.72697-0.97433 0.68666-0.06852
   8  -6  -7 1166.46  164.89   1-0.52463-0.23860 0.45068-0.29441 0.72225 0.92541
   8  -6   7 1136.11  171.57   1-0.10974-0.36095 0.98241 0.51257 0.15107 0.77908
   8   6   7  953.41  151.01   1-0.27317-0.05565 0.74074 0.98856-0.61374 0.14016
   8  -6  -8  723.45   99.94   1 0.00008 0.32469 0.64212-0.12356 0.76660 0.93771
   8  -6   8  669.13  137.87   1 0.00010-0.29137 0.99126 0.54047 0.13191 0.78929
   8   6   8  748.10  137.41   1 0.00004 0.17832 0.71352 0.98032-0.70062 0.08466
  -8   6  -8  737.32  139.12   1 0.00010 0.29278-0.99142-0.54146-0.13066-0.78809
  -8  -6  -8  746.82  140.12   1 0.00004-0.17596-0.71365-0.98071 0.70049-0.08501
   8  -6  -8  829.94  123.07   1-0.53601-0.21160 0.41008-0.35466 0.73791 0.91073
   8  -6   8  847.52  165.73   1-0.07254-0.36215 0.99235 0.54216 0.09987 0.75822
   8   6   8  649.70  135.68   1-0.28387-0.10468 0.71600 0.98364-0.63776 0.14656
  -8   8   0 3427.59  265.33   1 0.00009 0.06356-0.79838-0.07086-0.60215-0.99545
  -8  -8   0 3319.15  278.92   1 0.00002-0.56188-0.55357-0.78246 0.83279 0.26838
   8  -8   0 3935.09  305.30   1-0.36853-0.42895 0.77895 0.05189 0.50735 0.90183
   8   8   0 3399.48  268.68   1-0.27891 0.28541 0.72770 0.95622-0.62662-0.06458
   8  -8  -1  196.12  111.99   1 0.00009-0.02325 0.77144 0.02441 0.63629 0.99943
  -8   8   1  222.77  119.27   1 0.00009 0.02513-0.77126-0.02394-0.63651-0.99939
  -8   8  -1  270.80  115.63   1 0.00010 0.10199-0.82575-0.11804-0.56402-0.98775
  -8  -8  -1  171.18  117.60   1 0.00003-0.52340-0.57335-0.82195 0.81930 0.22457
   8  -8  -1  241.55  119.59   1-0.39550-0.41753 0.73966-0.00704 0.54449 0.90863
   8  -8   1  224.09  120.02   1-0.33950-0.43831 0.81625 0.10885 0.46739 0.89220
   8   8  -1  231.59  114.94   1-0.27687 0.32578 0.73240 0.94110-0.62203-0.09042
   8   8   1  226.67  119.78   1-0.28196 0.24403 0.72055 0.96889-0.63347-0.04100
   8  -8  -219167.58  433.32   1 0.00009 0.01516 0.74513-0.02160 0.66690 0.99965
   8  -8   218609.87  448.53   1 0.00010-0.13853 0.85281 0.16491 0.52220 0.97652
  -8   8   219571.13  452.34   1 0.00009-0.01329-0.74487 0.02224-0.66720-0.99966
  -8   8  -219594.29  456.99   1 0.00010 0.14041-0.85288-0.16497-0.52209-0.97625
  -8  -8  -219411.66  505.32   1 0.00003-0.48492-0.58647-0.85478 0.80996 0.18491
   8   8  -219346.27  600.97   1-0.27595 0.36503 0.73448 0.92338-0.61997-0.11879
   8   8   218464.26  527.37   1-0.28591 0.20176 0.71108 0.97924-0.64234-0.01944
   8  -8  -3  109.27  100.93   1 0.00009 0.05429 0.71986-0.06678 0.69410 0.99628
   8  -8   3   84.90  117.15   1 0.00010-0.17696 0.87910 0.21091 0.47663 0.96135
  -8   8  -3   52.62  119.34   1 0.00010 0.17870-0.87915-0.21097-0.47652-0.96101
  -8  -8  -3  101.02  117.83   1 0.00003-0.44644-0.59433-0.88234 0.80421 0.14885
   8  -8  -3  109.03  116.48   1-0.44262-0.38801 0.65784-0.12820 0.60935 0.91269
   8  -8   3  146.39  150.52   1-0.27629-0.45190 0.88260 0.21452 0.38036 0.86588
   8   8  -3   50.33  103.63   1-0.27628 0.40303 0.73373 0.90281-0.62072-0.14996
   8   8   3   70.76  101.90   1-0.29065 0.15868 0.69936 0.98732-0.65300 0.00032
   8  -8   4 2099.59  157.81   1 0.00010-0.21565 0.90394 0.25523 0.42763 0.94252
   8   8   4 2634.16  175.65   1 0.00003 0.41004 0.59710 0.90452-0.80216-0.11701
  -8   8  -4 2378.76  164.93   1 0.00010 0.21712-0.90420-0.25580-0.42710-0.94202
  -8  -8  -4 2182.86  188.61   1 0.00003-0.40796-0.59789-0.90561 0.80157 0.11589
   8  -8  -4 2606.40  198.64   1-0.46257-0.36958 0.61684-0.18886 0.63681 0.90980
   8  -8   4 2485.00  207.27   1-0.24275-0.45675 0.91070 0.26227 0.33419 0.85004
   9  -1   0 4837.56  260.16   1 0.00010 0.24283 0.97949 0.63933 0.20147 0.72957
   9   1   0 5668.49  292.94   1 0.00009 0.32101 0.99993 0.77940-0.01121 0.53802
  -9   1   0 5831.18  305.23   1 0.00010-0.24192-0.97917-0.63859-0.20301-0.73052
  -9  -1   0 5033.30  286.80   1 0.00009-0.32033-0.99995-0.77888 0.00970-0.53919
  -9   1   0 6172.68  358.48   1-0.58024-0.82360 0.15883 0.49862 0.79880 0.27029
   9  -1  -1  452.96   99.65   1 0.00010 0.28127 0.97005 0.61020 0.24287 0.74062
   9  -1   1  494.27  107.95   1 0.00010 0.20440 0.98743 0.66696 0.15805 0.71650
   9   1  -1  586.26   97.35   1 0.00010 0.35943 0.99972 0.75951 0.02327 0.54216
   9   1   1  596.82  103.47   1 0.00009 0.28259 0.99887 0.79803-0.04735 0.53224
  -9   1   1  605.94  109.50   1 0.00010-0.28073-0.96966-0.60925-0.24444-0.74161
  -9   1  -1  572.11  113.29   1 0.00010-0.20349-0.98721-0.66641-0.15936-0.71727
  -9  -1   1  501.01  104.50   1 0.00010-0.35876-0.99968-0.75884-0.02505-0.54355
  -9  -1  -1  502.14  109.49   1 0.00009-0.28190-0.99893-0.79763 0.04609-0.53319
  -9   1   1  690.04  139.63   1-0.58751-0.86927 0.02508 0.38453 0.80882 0.31063
  -9   1  -1  609.97  122.00   1-0.56414-0.76955 0.28028 0.60023 0.77664 0.21794
   9  -1  -2  595.56   96.43   1 0.00010 0.31970 0.95943 0.57989 0.28194 0.74934
   9  -1   2  579.32  121.41   1 0.00010 0.16597 0.99356 0.69272 0.11328 0.70184
   9   1  -2  592.67   96.08   1 0.00010 0.39785 0.99844 0.73854 0.05575 0.54429
   9   1   2  590.49  110.44   1 0.00009 0.24417 0.99639 0.81523-0.08480 0.52513
  -9   1   2  607.04  107.70   1 0.00010-0.31915-0.95889-0.57869-0.28376-0.75049
  -9   1  -2  608.14  122.07   1 0.00010-0.16506-0.99347-0.69244-0.11402-0.70233
  -9  -1   2  625.38  102.38   1 0.00010-0.39719-0.99832-0.73770-0.05781-0.54591
  -9  -1  -2  608.91  117.62   1 0.00009-0.24321-0.99647-0.81512 0.08391-0.52575
  -9   1   2  721.60  146.65   1-0.58385-0.90380-0.11415 0.26552 0.80378 0.33561
   9  -1   2  630.25  107.23   1-0.09837 0.06866 0.98589 0.68580 0.13543 0.72454
   9  -1  -3  737.52  102.66   1 0.00010 0.35814 0.94797 0.54874 0.31834 0.75538
   9   1  -3  724.09  102.24   1 0.00010 0.43627 0.99630 0.71672 0.08583 0.54402
   9  -1   3  743.01  114.38   1 0.00010 0.12755 0.99776 0.71660 0.06679 0.68571
   9   1   3  654.52  118.05   1 0.00009 0.20575 0.99236 0.83089-0.12330 0.51699
  -9   1   3  678.00  102.66   1 0.00010-0.35758-0.94728-0.54729-0.32040-0.75670
  -9   1  -3  644.58  116.02   1 0.00010-0.12663-0.99773-0.71647-0.06732-0.68602
  -9  -1   3  792.79  114.60   1 0.00010-0.43562-0.99610-0.71571-0.08817-0.54588
  -9  -1  -3  742.27  132.22   1 0.00009-0.20476-0.99245-0.83084 0.12258-0.51745
   9  -1   3  854.75  116.66   1-0.05490 0.07375 0.99562 0.71519 0.07558 0.69502
   9  -1  -4 6340.58  352.98   1 0.00010 0.39657 0.93608 0.51716 0.35176 0.75846
   9   1  -4 7054.67  388.02   1 0.00010 0.47469 0.99358 0.69432 0.11306 0.54090
   9  -1   4 6365.88  371.55   1 0.00010 0.08913 0.99981 0.73834 0.01924 0.66851
   9   1   4 6887.41  394.68   1 0.00009 0.16759 0.98673 0.84490-0.16230 0.50797
  -9   1   4 7139.82  396.21   1 0.00010-0.39600-0.93522-0.51544-0.35405-0.75993
  -9  -1   4 6875.71  390.91   1 0.00010-0.47405-0.99328-0.69311-0.11570-0.54301
  -9  -1  -4 6117.48  368.24   1 0.00009-0.16631-0.98678-0.84491 0.16202-0.50839
   9  -1   4 6262.63  372.30   1-0.01432 0.07593 0.99970 0.73892 0.01972 0.66949
   9  -1  -5  568.61   94.91   1 0.00010 0.43501 0.92419 0.48557 0.38192 0.75827
   9  -1   5  548.77  112.88   1 0.00009 0.05071 0.99957 0.75778-0.02909 0.65052
   9   1   5  664.57  120.17   1 0.00009 0.12921 0.97934 0.85721-0.20217 0.49847
  -9   1   5  698.70  105.61   1 0.00010-0.43442-0.92315-0.48357-0.38444-0.75988
  -9  -1   5  627.93  103.49   1 0.00010-0.51248-0.99016-0.67022-0.13989-0.53680
  -9   1  -5  678.02  128.57   1 0.00009-0.04977-0.99958-0.75786 0.02899-0.65050
  -9  -1  -5  534.85  124.76   1 0.00009-0.12786-0.97938-0.85724 0.20201-0.49877
   9  -1   5  557.88  104.90   1 0.02346 0.07534 0.99920 0.75807-0.03230 0.64780
   9  -1   6  704.30  126.26   1 0.00009 0.01229 0.99695 0.77485-0.07794 0.63202
   9   1   6  848.09  128.61   1 0.00008 0.09084 0.97017 0.86775-0.24238 0.48862
  -9  -1   6  803.94  110.88   1 0.00010-0.55091-0.98708-0.64737-0.16018-0.52668
  -9   1  -6  893.49  150.89   1 0.00009-0.01113-0.99695-0.77504 0.07793-0.63180
   9  -1   6  714.79  113.14   1 0.05869 0.07217 0.99500 0.77352-0.08080 0.62964
   9  -1   7  243.12  119.02   1 0.00009-0.02612 0.99189 0.78947-0.12708 0.61323
   9   1   7  247.77  118.01   1 0.00008 0.05246 0.95918 0.87646-0.28277 0.47860
  -9   1   7  271.76   92.46   1 0.00010-0.51126-0.90076-0.42160-0.43431-0.74890
  -9  -1   7  278.22   90.60   1 0.00010-0.58934-0.98440-0.62492-0.17589-0.51200
  -9   1  -7  269.08  121.45   1 0.00009 0.02732-0.99187-0.78970 0.12722-0.61288
  -9  -1  -7  255.67  145.99   1 0.00008-0.05096-0.95916-0.87650 0.28285-0.47868
   9  -1   7  244.40  101.73   1 0.09159 0.06669 0.98777 0.78595-0.12610 0.61467
   9   1   7  211.91  111.20   1-0.12244-0.06984 0.95358 0.87101-0.27509 0.48626
   9   1   8 4697.12  288.01   1 0.00008 0.01409 0.94633 0.88331-0.32317 0.46856
  -9   1   8 5509.73  293.53   1 0.00010-0.54968-0.89135-0.39240-0.45331-0.73746
  -9   1  -8 4837.42  293.59   1 0.00009 0.06577-0.98428-0.80185 0.17659-0.59389
  -9  -1  -8 4927.02  305.39   1 0.00008-0.01251-0.94627-0.88335 0.32337-0.46853
   9   1   8 3860.16  250.57   1-0.14333-0.12917 0.93581 0.87331-0.32203 0.46971
   9   1   9  590.43  138.37   1 0.00008-0.02428 0.93160 0.88828-0.36346 0.45864
  -9   1  -9  643.03  152.99   1 0.00008 0.10422-0.97416-0.81147 0.22583-0.57502
  -9  -1  -9  651.49  148.12   1 0.00008 0.02655-0.93147-0.88841 0.36379-0.45827
   9  -1   9  530.71  116.98   1-0.10752-0.21013 0.96440 0.80183-0.24157 0.55938
   9   1   9  511.63  122.33   1-0.16464-0.18884 0.91436 0.87165-0.36990 0.45227
   9  -1  10  422.44  136.16   1 0.00008-0.14089 0.96166 0.81850-0.27421 0.55695
  -9   1 -10  500.66  144.08   1 0.00008 0.14267-0.96150-0.81854 0.27479-0.55643
   9  -1  10  389.39  123.28   1-0.13390-0.27492 0.94422 0.80182-0.30083 0.53054
   9   1  10  436.46  124.85   1-0.18635-0.24891 0.88880 0.86588-0.41868 0.43391
   9  -3   0 3299.94  227.02   1 0.00010 0.16471 0.93360 0.47388 0.35830 0.86504
   9   3   0 3354.36  236.09   1 0.00008 0.39932 0.96485 0.86375-0.26278 0.30734
  -9   3   0 3561.50  250.82   1 0.00010-0.16389-0.93321-0.47312-0.35933-0.86561
  -9  -3   0 3255.07  240.28   1 0.00008-0.39840-0.96509-0.86378 0.26189-0.30846
   9  -3   0 3643.01  254.42   1-0.28699-0.12111 0.87265 0.41361 0.39510 0.90236
   9  -3  -1 4343.79  274.14   1 0.00010 0.20314 0.91663 0.43722 0.39971 0.87610
   9  -3   1 4276.29  266.88   1 0.00010 0.12627 0.94937 0.50934 0.31415 0.85124
   9   3  -1 4359.10  274.82   1 0.00008 0.43769 0.96981 0.84902-0.24382 0.29594
   9   3   1 4350.15  277.40   1 0.00008 0.36094 0.95873 0.87734-0.28429 0.31620
  -9   3   1 4528.99  285.58   1 0.00010-0.20231-0.91610-0.43622-0.40094-0.87679
  -9   3  -1 4441.33  277.55   1 0.00010-0.12547-0.94910-0.50880-0.31497-0.85168
  -9  -3   1 4296.89  285.25   1 0.00008-0.43686-0.97007-0.84902 0.24280-0.29717
  -9  -3  -1 4257.34  289.71   1 0.00008-0.35995-0.95896-0.87739 0.28352-0.31720
   9  -3  -1 4849.14  303.50   1-0.32768-0.12341 0.83012 0.35143 0.45112 0.92804
   9  -3   1 4681.20  304.56   1-0.24510-0.11763 0.90887 0.46950 0.33743 0.87505
   9  -3  -2 1071.51  128.13   1 0.00010 0.24187 0.89880 0.39963 0.43834 0.88418
   9  -3   2 1129.60  141.64   1 0.00010 0.08784 0.96354 0.54320 0.26754 0.83499
   9   3  -2 1089.26  130.81   1 0.00008 0.47607 0.97366 0.83316-0.22799 0.28141
   9   3   2 1124.24  141.45   1 0.00008 0.32257 0.95142 0.88973-0.30787 0.32298
  -9   3   2 1224.06  139.58   1 0.00010-0.24074-0.89820-0.39853-0.43956-0.88499
  -9  -3   2 1075.51  137.85   1 0.00008-0.47531-0.97393-0.83314 0.22684-0.28275
  -9  -3  -2 1061.68  152.38   1 0.00008-0.32150-0.95163-0.88980 0.30723-0.32386
   9  -3  -2 1261.33  138.56   1-0.36635-0.12369 0.78193 0.28359 0.50434 0.95093
   9  -3   2 1154.36  143.31   1-0.20290-0.11381 0.93851 0.51879 0.27933 0.84728
   9   3   2  922.95  130.91   1-0.11110 0.21179 0.96194 0.90007-0.24962 0.38081
   9  -3  -3 5343.82  307.77   1 0.00010 0.28030 0.88070 0.36183 0.47365 0.88910
   9  -3   3 5433.38  326.97   1 0.00010 0.04940 0.97577 0.57513 0.21877 0.81656
   9   3   3 5100.96  317.66   1 0.00008 0.28419 0.94287 0.90088-0.33314 0.32808
  -9   3   3 5349.84  316.16   1 0.00010-0.27916-0.87998-0.36052-0.47499-0.88999
  -9   3  -3 5309.42  328.79   1 0.00010-0.04863-0.97569-0.57497-0.21914-0.81672
  -9  -3   3 5405.18  335.58   1 0.00009-0.51376-0.97667-0.81614 0.21474-0.26449
  -9  -3  -3 5347.08  340.34   1 0.00008-0.28305-0.94306-0.90096 0.33261-0.32885
   9  -3  -3 6401.23  374.67   1-0.40216-0.12111 0.72919 0.21120 0.55365 0.96990
   9  -3   3 5692.59  339.57   1-0.16102-0.11033 0.96173 0.56166 0.22168 0.81997
   9   3   3 4480.07  291.66   1-0.12414 0.16039 0.95226 0.91015-0.27890 0.38196
   9  -3  -4 2217.24  139.41   1 0.00010 0.31872 0.86274 0.32415 0.50563 0.89069
   9  -3   4 2242.12  166.98   1 0.00010 0.01097 0.98576 0.60480 0.16815 0.79629
   9   3   4 2424.43  165.85   1 0.00008 0.24582 0.93304 0.91075-0.35977 0.33182
  -9   3   4 2479.59  156.25   1 0.00010-0.31750-0.86196-0.32269-0.50696-0.89166
  -9   3  -4 2609.48  176.95   1 0.00010-0.00979-0.98566-0.60467-0.16869-0.79641
  -9  -3   4 2241.43  160.83   1 0.00009-0.55222-0.97824-0.79797 0.20744-0.24141
  -9  -3  -4 2252.01  180.32   1 0.00008-0.24392-0.93315-0.91102 0.35947-0.33245
  -9  -3  -4 1726.60  255.95   1-0.35566-0.59992-0.79609-0.77362 0.48963-0.20393
   9  -3   4 2324.59  152.50   1-0.12000-0.10770 0.97893 0.59851 0.16521 0.79383
   9  -3  -5 2949.81  143.34   1 0.00010 0.35715 0.84537 0.28707 0.53417 0.88883
   9  -3   5 2937.80  182.37   1 0.00010-0.02749 0.99319 0.63172 0.11646 0.77470
   9   3   5 3266.56  185.36   1 0.00007 0.20744 0.92187 0.91929-0.38748 0.33447
  -9   3   5 3298.87  167.13   1 0.00010-0.35592-0.84447-0.28540-0.53560-0.88986
  -9   3  -5 3593.94  204.22   1 0.00010 0.02863-0.99321-0.63198-0.11633-0.77445
  -9  -3   5 3164.15  192.88   1 0.00009-0.59067-0.97850-0.77849 0.20623-0.21224
  -9  -3  -5 3066.30  200.82   1 0.00007-0.20544-0.92197-0.91955 0.38725-0.33498
  -9  -3  -5 2810.35  205.25   1-0.35531-0.56107-0.79653-0.79379 0.48915-0.23470
   9  -3   5 3197.67  175.20   1-0.08020-0.10629 0.99064 0.62988 0.11042 0.76938
   9  -3  -6  704.28   99.05   1 0.00010 0.39558 0.82903 0.25102 0.55919 0.88345
   9   3   6  739.00  131.42   1 0.00007 0.16897 0.90935 0.92646-0.41602 0.33632
  -9   3   6  765.10  111.65   1 0.00010-0.39435-0.82801-0.24915-0.56069-0.88453
  -9   3  -6  812.52  144.07   1 0.00010 0.06706-0.99802-0.65657-0.06275-0.75127
  -9  -3  -6  730.42  147.16   1 0.00007-0.16696-0.90941-0.92670 0.41589-0.33667
  -9  -3  -6  654.79  123.01   1-0.35817-0.52541-0.79282-0.80980 0.49309-0.26105
   9  -3   6  714.18  120.89   1-0.04186-0.10633 0.99746 0.65635 0.05762 0.74692
   9   3   6  610.25  120.65   1-0.16845 0.00089 0.91016 0.92756-0.37845 0.37364
   9  -3  -7 4640.98  256.63   1 0.00009 0.43400 0.81414 0.21642 0.58065 0.87452
   9   3   7 4218.23  268.05   1 0.00007 0.13059 0.89541 0.93223-0.44523 0.33746
  -9   3   7 4383.57  252.61   1 0.00009-0.43278-0.81302-0.21435-0.58223-0.87564
  -9   3  -7 4439.92  280.31   1 0.00009 0.10549-0.99996-0.67828-0.00826-0.72718
  -9  -3  -7 4528.65  296.09   1 0.00007-0.12849-0.89544-0.93243 0.44517-0.33770
  -9  -3  -7 4049.01  350.00   1-0.36321-0.49195-0.78615-0.82286 0.50003-0.28440
   9  -3   7 4545.27  273.52   1-0.00507-0.10793 0.99996 0.67850 0.00699 0.72662
   9   3   7 3775.61  245.40   1-0.18453-0.05354 0.89110 0.92830-0.41458 0.36794
   9  -3   8 1914.00  191.15   1 0.00009-0.14275 0.99893 0.69651-0.04609 0.70319
   9   3   8 2254.27  211.62   1 0.00007 0.09221 0.88003 0.93656-0.47491 0.33814
  -9   3   8 2285.27  185.66   1 0.00009-0.47120-0.79986-0.18139-0.60017-0.86316
  -9   3  -8 2362.33  220.33   1 0.00009 0.14392-0.99890-0.69699 0.04683-0.70248
  -9  -3  -8 1982.45  203.49   1-0.36979-0.46002-0.77721-0.83364 0.50909-0.30563
   9  -3   8 2076.61  196.49   1 0.03010-0.11114 0.99868 0.69688-0.04144 0.70852
   9   3   8 1960.49  184.85   1-0.20108-0.10845 0.86917 0.92616-0.45177 0.36119
   9  -3   9 2389.22  182.61   1 0.00009-0.18117 0.99484 0.71211-0.10136 0.67828
   9   3   9 2424.49  175.47   1 0.00006 0.05384 0.86317 0.93941-0.50490 0.33852
  -9   3   9 2581.51  149.99   1 0.00009-0.50963-0.78888-0.15061-0.61454-0.84710
  -9   3  -9 2505.21  187.34   1 0.00009 0.18250-0.99478-0.71257 0.10198-0.67744
  -9  -3  -9 2446.72  194.27   1-0.37749-0.42921-0.76642-0.84258 0.51969-0.32532
   9  -3   9 2551.85  168.87   1 0.06371-0.11592 0.99410 0.71195-0.08770 0.69259
   9   3   9 2215.63  179.86   1-0.21799-0.16371 0.84416 0.92094-0.48975 0.35363
   9  -5   0 1263.35  138.14   1 0.00010 0.08687 0.88675 0.30751 0.46224 0.94757
  -9  -5   0 1211.60  164.75   1 0.00006-0.47592-0.85753-0.87604 0.51442-0.07767
   9  -5   0 1384.26  146.89   1-0.32805-0.24012 0.82971 0.25103 0.45162 0.93772
   9   5   0  956.14  133.04   1-0.16917 0.30880 0.90934 0.92750-0.38008 0.21066
   9  -5  -1  818.92  123.70   1 0.00010 0.12530 0.86563 0.26668 0.50066 0.95560
   9  -5   1  801.92  118.36   1 0.00010 0.04815 0.90721 0.34762 0.42066 0.93639
   9   5   1  836.82  125.69   1 0.00006 0.43908 0.85450 0.89258-0.51944 0.10241
  -9   5   1  840.66  129.25   1 0.00010-0.12379-0.86524-0.26591-0.50135-0.95601
  -9   5  -1  861.78  132.51   1 0.00010-0.04705-0.90696-0.34719-0.42120-0.93661
  -9  -5   1  831.92  129.76   1 0.00006-0.51440-0.85743-0.85624 0.51458-0.04720
  -9  -5  -1  816.43  143.37   1 0.00006-0.43744-0.85500-0.89323 0.51861-0.10380
   9  -5  -1  878.15  130.22   1-0.36130-0.23499 0.78869 0.19037 0.49740 0.95317
   9  -5   1  830.63  122.07   1-0.29297-0.24342 0.86688 0.30786 0.40332 0.91976
   9   5  -1  759.43  122.44   1-0.16267 0.35365 0.91649 0.91485-0.36548 0.19484
   9   5   1  729.22  126.89   1-0.17679 0.26282 0.90054 0.93848-0.39719 0.22398
   9  -5  -2 1370.32  133.33   1 0.00010 0.16373 0.84434 0.22567 0.53580 0.96034
   9  -5   2 1368.51  140.55   1 0.00010 0.00971 0.92658 0.38668 0.37607 0.92216
   9   5   2 1407.36  143.38   1 0.00006 0.40071 0.84982 0.90761-0.52706 0.12515
  -9   5   2 1386.23  145.94   1 0.00010-0.16221-0.84384-0.22471-0.53659-0.96082
  -9   5  -2 1459.20  155.07   1 0.00010-0.00863-0.92644-0.38646-0.37642-0.92226
  -9  -5   2 1365.41  151.21   1 0.00006-0.55288-0.85407-0.83318 0.52014-0.01132
  -9  -5  -2 1393.65  165.55   1 0.00006-0.39897-0.85027-0.90820 0.52633-0.12640
   9  -5  -2 1559.63  144.91   1-0.39229-0.22758 0.74460 0.12663 0.54006 0.96548
   9  -5   2 1445.56  148.54   1-0.25652-0.24539 0.89971 0.36036 0.35315 0.89995
   9   5  -2 1212.37  131.72   1-0.15741 0.39728 0.92203 0.90061-0.35364 0.17624
   9   5   2 1222.84  134.61   1-0.18542 0.21583 0.88998 0.94772-0.41657 0.23502
   9  -5  -3  533.67  106.32   1 0.00010 0.20215 0.82331 0.18493 0.56758 0.96173
   9  -5   3  526.06  122.54   1 0.00010-0.02871 0.94444 0.42423 0.32866 0.90509
   9   5   3  523.79  114.19   1 0.00006 0.36233 0.84319 0.92070-0.53760 0.14497
  -9   5   3  530.29  114.17   1 0.00010-0.20064-0.82270-0.18378-0.56846-0.96227
  -9   5  -3  534.34  123.87   1 0.00010 0.02978-0.94439-0.42420-0.32881-0.90507
  -9  -5   3  473.24  117.42   1 0.00006-0.59136-0.84639-0.80579 0.53254 0.03139
  -9  -5  -3  524.38  131.33   1 0.00006-0.36049-0.84361-0.92124 0.53695-0.14610
   9  -5  -3  642.97  125.02   1-0.42072-0.21768 0.69822 0.06046 0.57919 0.97414
   9  -5   3  531.67  113.57   1-0.21928-0.24654 0.92778 0.40808 0.30188 0.87902
   9   5  -3  432.52   95.84   1-0.15349 0.43955 0.92602 0.88480-0.34485 0.15461
   9   5   3  421.98  111.89   1-0.19495 0.16794 0.87758 0.95511-0.43798 0.24404
   9  -5  -4 1618.66  142.47   1 0.00009 0.24058 0.80298 0.14489 0.59600 0.95975
   9   5   4 1718.83  168.97   1 0.00006 0.32396 0.83481 0.93202-0.55053 0.16240
  -9   5   4 1685.88  156.11   1 0.00009-0.23907-0.80227-0.14354-0.59694-0.96033
  -9   5  -4 1753.49  169.51   1 0.00010 0.06820-0.96040-0.46001-0.27859-0.88528
  -9  -5  -4 1700.66  177.02   1 0.00006-0.32201-0.83518-0.93252 0.54997-0.16339
   9  -5  -4 1893.76  167.83   1-0.44614-0.20473 0.65092-0.00649 0.61420 0.97879
   9  -5   4 1799.92  180.82   1-0.18167-0.24732 0.95102 0.45097 0.25011 0.85758
   9   5  -4 1510.97  150.55   1-0.15105 0.48035 0.92844 0.86743-0.33937 0.12966
   9   5   4 1460.52  157.38   1-0.20527 0.11926 0.86322 0.96054-0.46118 0.25127
   9  -5  -5  595.73   95.77   1 0.00009 0.27901 0.78375 0.10596 0.62106 0.95442
   9   5   5  683.72  129.60   1 0.00006 0.28558 0.82478 0.94170-0.56545 0.17784
  -9   5   5  674.04  117.52   1 0.00009-0.27749-0.78295-0.10442-0.62207-0.95503
  -9   5  -5  700.62  141.43   1 0.00010 0.10663-0.97411-0.49350-0.22605-0.86317
  -9  -5  -5  685.14  151.31   1 0.00006-0.28354-0.82510-0.94216 0.56497-0.17871
   9  -5  -5  732.47  115.93   1-0.46854-0.18876 0.60365-0.07342 0.64503 0.97927
   9  -5   5  635.92  135.05   1-0.14410-0.24814 0.96947 0.48907 0.19838 0.83619
   9   5  -5  605.77  105.30   1-0.15023 0.51953 0.92924 0.84845-0.33753 0.10107
   9   5   5  599.61  125.65   1-0.21629 0.06988 0.84679 0.96389-0.48595 0.25694
   9  -5  -6 1927.07  167.57   1 0.00009 0.31743 0.76599 0.06849 0.64284 0.94580
   9  -5   6 1908.55  189.67   1 0.00010-0.14402 0.98509 0.52396 0.17198 0.83947
   9   5   6 2085.12  193.49   1 0.00006 0.24720 0.81318 0.94981-0.58200 0.19165
  -9   5   6 2053.90  187.67   1 0.00009-0.31592-0.76511-0.06677-0.64389-0.94643
  -9   5  -6 2200.38  204.88   1 0.00010 0.14547-0.98509-0.52413-0.17198-0.83911
  -9  -5  -6 2038.43  214.99   1 0.00006-0.24506-0.81346-0.95022 0.58161-0.19239
   9  -5  -6 2307.28  202.94   1-0.48791-0.16975 0.55745-0.13928 0.67170 0.97559
   9  -5   6 2099.29  207.69   1-0.10690-0.24933 0.98331 0.52257 0.14717 0.81532
   9  -5  -7  533.04   96.64   1 0.00009 0.35586 0.75003 0.03282 0.66139 0.93396
   9  -5   7  494.96  129.39   1 0.00010-0.18253 0.99319 0.55141 0.11645 0.81401
   9   5   7  545.88  125.12   1 0.00006 0.20883 0.80006 0.95641-0.59990 0.20411
  -9   5   7  554.49  108.82   1 0.00009-0.35435-0.74906-0.03093-0.66249-0.93460
  -9   5  -7  540.30  136.75   1 0.00010 0.18390-0.99328-0.55209-0.11571-0.81324
  -9  -5  -7  569.13  144.43   1 0.00006-0.20658-0.80030-0.95676 0.59959-0.20472
   9  -5   7  560.56  126.19   1-0.07033-0.25115 0.99281 0.55172 0.09683 0.79531
   9   5   7  459.47  111.70   1-0.24006-0.03051 0.80714 0.96412-0.53934 0.26367
   9  -7   0 1230.72  136.77   1 0.00010 0.00873 0.85160 0.15286 0.52418 0.98820
  -9   7   0 1348.21  148.43   1 0.00010-0.00693-0.85140-0.15240-0.52451-0.98829
  -9  -7   0 1200.60  150.15   1 0.00004-0.55403-0.68670-0.82473 0.72693 0.11340
   9  -7   0 1343.22  156.83   1-0.34230-0.33232 0.81287 0.11456 0.47124 0.93618
   9   7   0 1210.80  141.45   1-0.23958 0.31678 0.80800 0.94569-0.53825 0.07290
   9  -7  -1  367.68  121.04   1 0.00010 0.04716 0.82909 0.11064 0.55910 0.99273
   9  -7   1  389.35  126.51   1 0.00010-0.02969 0.87399 0.19496 0.48593 0.98036
  -9   7   1  388.85  131.07   1 0.00010-0.04536-0.82880-0.11000-0.55954-0.99289
  -9   7  -1  449.29  126.81   1 0.00010 0.03136-0.87379-0.19455-0.48630-0.98039
  -9  -7  -1  382.78  121.89   1 0.00004-0.51555-0.69589-0.85362 0.71814 0.07429
   9  -7  -1  394.61  123.79   1-0.37064-0.32227 0.77605 0.05810 0.51025 0.94486
   9  -7   1  411.41  140.87   1-0.31212-0.34053 0.84730 0.16865 0.42970 0.92498
   9   7   1  318.87  119.53   1-0.24412 0.27390 0.79973 0.95723-0.54847 0.09311
   9   7  -1  345.49  120.60   1-0.23608 0.35871 0.81420 0.93204-0.53041 0.05112
   9  -7  -2 7400.48  249.07   1 0.00009 0.08558 0.80687 0.06871 0.59072 0.99395
  -9   7  -2 7677.18  269.83   1 0.00010 0.06978-0.89569-0.23624-0.44466-0.96918
  -9  -7  -2 7444.33  308.03   1 0.00004-0.47707-0.70053-0.87797 0.71361 0.03945
   9  -7  -2 8400.35  298.46   1-0.39690-0.31014 0.73749-0.00011 0.54641 0.95068
   9  -7   2 8373.02  325.81   1-0.28041-0.34721 0.87882 0.21981 0.38604 0.91165
   9   7  -2 7085.91  285.01   1-0.23371 0.39944 0.81833 0.91638-0.52508 0.02602
   9   7   2 6998.70  293.34   1-0.24959 0.23011 0.78946 0.96678-0.56075 0.11126
   9  -7  -3   -0.52   92.41   1 0.00009 0.12502 0.78568 0.02795 0.61862 0.99176
   9  -7   3    5.87  114.67   1 0.00010-0.10684 0.91655 0.27678 0.39989 0.95497
  -9   7   3   15.78   88.77   1 0.00009-0.12221-0.78487-0.02648-0.61965-0.99215
  -9   7  -3   -4.30  113.45   1 0.00010 0.10844-0.91666-0.27706-0.39966-0.95471
  -9  -7  -3   -6.38  123.02   1 0.00004-0.43963-0.70120-0.89813 0.71296 0.00863
   9  -7  -3   67.71  130.68   1-0.42098-0.29593 0.69777-0.05957 0.57955 0.95334
   9  -7   3   18.34  118.01   1-0.24744-0.35265 0.90704 0.26771 0.34064 0.89663
   9   7  -3   16.40   96.59   1-0.23259 0.43892 0.82025 0.89852-0.52257-0.00188
   9   7   3  -13.88  109.83   1-0.25587 0.18560 0.77720 0.97418-0.57487 0.12853
  10   0   0 9617.29  279.29   1 0.00010 0.31322 0.99834 0.68682 0.05747 0.65586
 -10   0   010084.28  306.62   1 0.00010-0.31237-0.99826-0.68623-0.05888-0.65688
  10   0  -1 6036.73  228.23   1 0.00010 0.35164 0.99583 0.66462 0.09121 0.65925
  10   0   1 5922.28  217.75   1 0.00010 0.27480 0.99975 0.70792 0.02189 0.65063
 -10   0   1 6241.44  235.79   1 0.00010-0.35080-0.99567-0.66387-0.09284-0.66045
 -10   0  -1 6241.39  239.32   1 0.00010-0.27394-0.99973-0.70747-0.02307-0.65148
  10   0  -2   41.71   82.23   1 0.00010 0.39006 0.99242 0.64153 0.12282 0.66051
  10   0   2   16.47   91.90   1 0.00009 0.23638 0.99988 0.72772-0.01525 0.64384
 -10   0   2   28.03   84.37   1 0.00010-0.38923-0.99219-0.64061-0.12468-0.66189
 -10   0  -2   29.82   99.67   1 0.00009-0.23551-0.99989-0.72741 0.01428-0.64451
  10   0  -3 5683.17  219.71   1 0.00010 0.42851 0.98842 0.61782 0.15170 0.65929
  10   0   3 5656.15  232.37   1 0.00009 0.19796 0.99855 0.74608-0.05370 0.63573
 -10   0   3 6046.55  233.40   1 0.00010-0.42766-0.98805-0.61670-0.15407-0.66088
 -10   0  -3 5939.95  252.45   1 0.00009-0.19709-0.99859-0.74588 0.05295-0.63624
  10   0   4 5882.22  242.93   1 0.00009 0.15954 0.99564 0.76285-0.09322 0.62657
 -10   0   4 6498.35  234.48   1 0.00010-0.46609-0.98353-0.59241-0.18070-0.65711
 -10   0  -4 6063.59  254.35   1 0.00009-0.15840-0.99569-0.76288 0.09268-0.62682
  10   0   5 4444.91  266.85   1 0.00009 0.12112 0.99103 0.77793-0.13358 0.61655
 -10   0   5 5084.53  287.31   1 0.00010-0.50452-0.97892-0.56802-0.20421-0.65022
 -10   0  -5 4493.52  283.63   1 0.00009-0.11995-0.99108-0.77802 0.13320-0.61667
  10   0   6  344.28  126.49   1 0.00009 0.08304 0.98467 0.79131-0.17441 0.60574
 -10   0   6  449.24  101.54   1 0.00010-0.54334-0.97455-0.54371-0.22416-0.63964
  10   0   7 5358.19  376.23   1 0.00009 0.04467 0.97641 0.80276-0.21589 0.59462
 -10   0  -7 5533.08  398.07   1 0.00009-0.04305-0.97640-0.80281 0.21595-0.59467
  10   0   8 3835.26  205.73   1-0.11495-0.10863 0.95920 0.80544-0.25826 0.58262
  10  -2   011875.49  325.76   1 0.00010 0.23508 0.97333 0.54224 0.22937 0.80666
  10   2   012768.26  608.00   1 0.00009 0.39153 0.98760 0.79558-0.15694 0.46233
 -10   2   012977.91  591.68   1 0.00010-0.23439-0.97304-0.54148-0.23062-0.80737
 -10  -2   012077.24  355.10   1 0.00009-0.39049-0.98774-0.79549 0.15608-0.46335
  10  -2  -1 1395.93  126.15   1 0.00010 0.27352 0.96377 0.51299 0.26671 0.81365
  10  -2   1 1481.48  138.54   1 0.00010 0.19665 0.98181 0.57041 0.18983 0.79746
  10   2  -1 1495.62  134.31   1 0.00009 0.42984 0.99101 0.77948-0.13376 0.45566
  10   2   1 1483.81  138.67   1 0.00009 0.35315 0.98313 0.81081-0.18288 0.46676
 -10   2   1 1591.04  143.06   1 0.00010-0.27281-0.96336-0.51201-0.26818-0.81449
 -10   2  -1 1650.19  150.41   1 0.00010-0.19553-0.98155-0.56979-0.19117-0.79818
 -10  -2   1 1501.41  141.33   1 0.00009-0.42895-0.99123-0.77924 0.13214-0.45692
 -10  -2  -1 1428.01  150.44   1 0.00009-0.35204-0.98327-0.81076 0.18213-0.46767
  10  -2  -2 5015.80  200.42   1 0.00010 0.31195 0.95343 0.48295 0.30160 0.81819
  10  -2   2 5096.74  217.82   1 0.00010 0.15818 0.98887 0.59704 0.14874 0.78646
  10   2   2 5167.52  219.93   1 0.00009 0.31477 0.97757 0.82495-0.21057 0.46942
 -10   2   2 5341.59  210.53   1 0.00010-0.31124-0.95290-0.48175-0.30328-0.81917
 -10   2  -2 5601.75  249.00   1 0.00010-0.15710-0.98876-0.59677-0.14946-0.78687
 -10  -2   2 5432.63  231.66   1 0.00009-0.46740-0.99385-0.76212 0.11070-0.44798
 -10  -2  -2 5084.53  236.53   1 0.00009-0.31359-0.97771-0.82494 0.20994-0.47024
  10  -2  -3 1113.97  112.82   1 0.00010 0.35039 0.94263 0.45246 0.33382 0.82006
  10  -2   3 1130.34  133.49   1 0.00010 0.11976 0.99441 0.62226 0.10552 0.77359
  10   2   3 1493.94  142.61   1 0.00008 0.27640 0.97083 0.83791-0.23974 0.47063
 -10   2   3 1526.31  136.63   1 0.00010-0.34966-0.94196-0.45103-0.33570-0.82116
 -10   2  -3 1540.85  161.17   1 0.00010-0.11867-0.99436-0.62214-0.10604-0.77385
 -10  -2   3 1246.44  137.55   1 0.00009-0.50585-0.99573-0.74427 0.09224-0.43608
 -10  -2  -3 1197.45  148.99   1 0.00008-0.27514-0.97096-0.83793 0.23921-0.47134
  10  -2  -411625.26  528.00   1 0.00010 0.38882 0.93172 0.42186 0.36316 0.81905
  10  -2   411630.77  553.54   1 0.00010 0.08134 0.99814 0.64568 0.06084 0.75926
  10   2   411404.00  535.95   1 0.00008 0.23802 0.96283 0.84961-0.27010 0.47063
 -10   2   412266.42  733.12   1 0.00010-0.38808-0.93091-0.42019-0.36523-0.82026
 -10  -2   412835.96  784.18   1 0.00009-0.54451-0.99704-0.72543 0.07678-0.42101
 -10  -2  -411549.07  569.55   1 0.00008-0.23669-0.96294-0.84965 0.26969-0.47123
  10  -2  -5 1228.63  123.26   1 0.00010 0.42726 0.92105 0.39150 0.38943 0.81497
  10  -2   5 1160.85  142.73   1 0.00010 0.04292 0.99988 0.66710 0.01495 0.74372
  10   2   5 1275.72  152.79   1 0.00008 0.19965 0.95348 0.85997-0.30143 0.46966
 -10   2   5 1350.26  132.09   1 0.00010-0.42650-0.92009-0.38958-0.39168-0.81628
 -10   2  -5 1361.67  157.82   1 0.00010-0.04181-0.99988-0.66721-0.01507-0.74369
 -10  -2   5 1373.80  145.02   1 0.00009-0.58294-0.99782-0.70643 0.06598-0.40141
 -10  -2  -5 1228.72  171.25   1 0.00008-0.19823-0.95358-0.86002 0.30114-0.47016
  10   2   5 1047.20  133.34   1-0.12015 0.07973 0.95535 0.86181-0.26994 0.50090
  10  -2   6 4219.81  313.06   1 0.00009 0.00450 0.99949 0.68639-0.03190 0.72721
  10   2   6 4256.94  314.78   1 0.00008 0.16127 0.94273 0.86892-0.33353 0.46793
 -10   2   6 4668.21  319.04   1 0.00010-0.46492-0.90987-0.35957-0.41487-0.80904
 -10   2  -6 4667.01  339.13   1 0.00009-0.00339-0.99948-0.68659 0.03197-0.72703
 -10  -2  -6 4221.21  329.66   1 0.00008-0.15978-0.94280-0.86898 0.33335-0.46832
  10   2   6 3452.37  269.83   1-0.13635 0.02506 0.94209 0.86859-0.30635 0.49488
  10  -2   7  825.45  136.61   1 0.00009-0.03391 0.99683 0.70341-0.07950 0.70996
  10   2   7  825.50  139.56   1 0.00008 0.12289 0.93052 0.87641-0.36622 0.46560
 -10   2   7  936.46  118.39   1 0.00010-0.50334-0.90060-0.33050-0.43464-0.79837
 -10   2  -7  924.19  154.40   1 0.00009 0.03522-0.99682-0.70372 0.07959-0.70960
 -10  -2  -7  835.55  152.41   1 0.00008-0.12064-0.93052-0.87665 0.36623-0.46575
  10  -2   7  825.54  126.12   1 0.05729 0.02483 0.99523 0.70253-0.07887 0.71121
  10   2   7  701.84  116.67   1-0.15319-0.03012 0.92632 0.87260-0.34417 0.48749
  10  -4   0 2415.10  180.42   1 0.00010 0.15696 0.93537 0.38471 0.35366 0.90959
 -10   4   0 2520.68  194.72   1 0.00010-0.15597-0.93500-0.38396-0.35464-0.91007
 -10  -4   0 2444.04  202.82   1 0.00007-0.46807-0.92008-0.84773 0.39171-0.24949
  10   4   0 1998.90  170.49   1-0.13048 0.33969 0.94711 0.87427-0.29316 0.34676
  10  -4  -1 1474.52  148.74   1 0.00010 0.19539 0.92061 0.35026 0.39046 0.91604
  10  -4   1 1497.55  146.07   1 0.00010 0.11852 0.94934 0.41838 0.31422 0.90050
  10   4   1 1753.44  156.25   1 0.00007 0.43137 0.91463 0.86185-0.40427 0.26667
 -10   4   1 1874.45  172.68   1 0.00010-0.19440-0.92012-0.34930-0.39161-0.91662
 -10   4  -1 1791.89  163.21   1 0.00010-0.11755-0.94908-0.41784-0.31501-0.90088
 -10  -4   1 1441.36  159.74   1 0.00007-0.50655-0.92365-0.83160 0.38321-0.22768
 -10  -4  -1 1481.58  173.07   1 0.00007-0.42959-0.91497-0.86233 0.40351-0.26801
  10  -4   1 1626.67  159.70   1-0.23894-0.11903 0.91361 0.38336 0.32895 0.91589
  10   4  -1 1425.11  145.57   1-0.12305 0.38550 0.95311 0.86050-0.27645 0.33303
  10   4   1 1478.68  162.12   1-0.13906 0.29262 0.93970 0.88673-0.31243 0.35787
  10  -4  -2 7498.05  372.13   1 0.00010 0.23383 0.90543 0.31539 0.42447 0.91970
  10  -4   2 7536.31  380.87   1 0.00010 0.08008 0.96220 0.45093 0.27232 0.88895
  10   4   2 8115.10  416.27   1 0.00007 0.39290 0.90816 0.87503-0.41862 0.28274
 -10   4   2 8347.67  408.33   1 0.00010-0.23282-0.90482-0.31420-0.42578-0.92036
 -10  -4   2 7512.38  404.19   1 0.00007-0.54503-0.92551-0.81375 0.37871-0.20187
 -10  -4  -2 7384.14  407.07   1 0.00007-0.39112-0.90842-0.87548 0.41804-0.28380
  10  -4   2 8412.06  427.00   1-0.20210-0.12057 0.93901 0.42841 0.27823 0.89550
  10   4  -2 6630.61  347.66   1-0.11683 0.43008 0.95783 0.84546-0.26247 0.31657
  10   4   2 6887.07  381.15   1-0.14867 0.24465 0.93076 0.89758-0.33402 0.36672
  10  -4  -3 1499.60  153.89   1 0.00010 0.27257 0.89010 0.28031 0.45575 0.92039
  10  -4   3 1550.01  169.30   1 0.00010 0.04165 0.97361 0.48203 0.22818 0.87515
  10   4   3 1618.46  170.15   1 0.00007 0.35452 0.90025 0.88683-0.43536 0.29636
 -10   4   3 1675.65  165.26   1 0.00010-0.27124-0.88945-0.27904-0.45702-0.92117
 -10   4  -3 1758.01  193.46   1 0.00010-0.04071-0.97352-0.48186-0.22857-0.87529
 -10  -4  -3 1501.96  193.79   1 0.00007-0.35264-0.90049-0.88727 0.43485-0.29730
  10  -4   3 1609.07  166.33   1-0.16506-0.12192 0.95974 0.46880 0.22724 0.87484
  10   4  -3 1382.28  161.86   1-0.11192 0.47336 0.96137 0.82923-0.25145 0.29716
  10   4   3 1370.23  167.19   1-0.15922 0.19575 0.92015 0.90676-0.35772 0.37345
  10  -4  -4 1836.64  167.30   1 0.00010 0.31100 0.87513 0.24563 0.48387 0.91811
  10  -4   4 1885.30  190.99   1 0.00010 0.00321 0.98329 0.51141 0.18200 0.85933
  10   4   4 1850.66  183.90   1 0.00007 0.31615 0.89099 0.89729-0.45400 0.30808
 -10   4   4 1881.89  181.08   1 0.00010-0.30966-0.87437-0.24418-0.48524-0.91895
 -10   4  -4 2054.97  204.83   1 0.00010-0.00183-0.98318-0.51122-0.18261-0.85944
 -10  -4  -4 1852.59  202.34   1 0.00007-0.31416-0.89122-0.89770 0.45356-0.30891
  10  -4   4 2023.41  199.89   1-0.12822-0.12347 0.97590 0.50461 0.17652 0.85447
  10   4  -4 1653.78  171.14   1-0.10842 0.51522 0.96379 0.81188-0.24359 0.27457
  10   4   4 1616.91  174.48   1-0.17062 0.14599 0.90771 0.91411-0.38333 0.37826
  10  -4  -5 1590.93  132.59   1 0.00010 0.34943 0.86082 0.21161 0.50890 0.91275
  10  -4   5 1528.88  138.54   1 0.00010-0.03528 0.99090 0.53844 0.13453 0.84192
  10   4   5 1767.10  152.18   1 0.00007 0.27777 0.88040 0.90640-0.47422 0.31822
 -10   4   5 1779.72  139.50   1 0.00010-0.34799-0.86003-0.21002-0.51024-0.91366
 -10   4  -5 1954.90  152.41   1 0.00010 0.03659-0.99092-0.53873-0.13445-0.84167
 -10  -4  -5 1587.91  172.89   1 0.00007-0.27569-0.88060-0.90679 0.47385-0.31894
  10  -4   5 1653.23  153.13   1-0.09190-0.12553 0.98769 0.53605 0.12651 0.83479
  11  -1   0 3873.42  281.13   1 0.00010 0.30543 0.99521 0.59269 0.09771 0.74526
  11   1   0 3945.17  288.27   1 0.00009 0.38363 0.99655 0.71372-0.08290 0.58601
 -11   1   0 4142.62  301.31   1 0.00010-0.30441-0.99508-0.59209-0.09904-0.74615
 -11  -1   0 4238.79  305.45   1 0.00009-0.38259-0.99667-0.71349 0.08153-0.58698
  11  -1  -1 1072.22  132.33   1 0.00010 0.34385 0.99157 0.56937 0.12951 0.74670
  11  -1   1 1078.98  137.35   1 0.00010 0.26701 0.99795 0.61512 0.06394 0.74184
  11   1  -1 1184.24  142.92   1 0.00009 0.42206 0.99834 0.69582-0.05746 0.58110
  11   1   1 1111.93  139.13   1 0.00009 0.34522 0.99389 0.73074-0.11034 0.58892
 -11   1   1 1176.58  146.59   1 0.00010-0.34284-0.99137-0.56861-0.13103-0.74774
 -11   1  -1 1197.16  159.45   1 0.00010-0.26598-0.99787-0.61466-0.06507-0.74258
 -11  -1   1 1196.19  142.82   1 0.00009-0.42126-0.99844-0.69519 0.05566-0.58244
 -11  -1  -1 1138.69  158.16   1 0.00009-0.34413-0.99402-0.73058 0.10914-0.58975
  11  -1  -2  615.31  109.21   1 0.00010 0.38232 0.98732 0.54547 0.15871 0.74584
  11  -1   2  601.56  120.32   1 0.00010 0.22859 0.99959 0.63644 0.02842 0.73666
  11   1   2  438.24  116.19   1 0.00009 0.30698 0.99027 0.74673-0.13910 0.59004
 -11   1   2  534.91  120.98   1 0.00010-0.38127-0.98698-0.54444-0.16081-0.74712
 -11   1  -2  534.71  125.69   1 0.00010-0.22756-0.99956-0.63612-0.02935-0.73726
 -11  -1   2  649.07  122.78   1 0.00009-0.45969-0.99947-0.67645 0.03229-0.57540
 -11  -1  -2  593.11  131.67   1 0.00009-0.30568-0.99036-0.74666 0.13846-0.59080
  11  -1  -3 1738.09  138.14   1 0.00010 0.42076 0.98258 0.52104 0.18583 0.74261
  11  -1   3 1672.94  148.33   1 0.00009 0.19017 0.99996 0.65649-0.00863 0.72995
  11   1   3 1593.19  151.87   1 0.00009 0.26860 0.98547 0.76163-0.16979 0.58971
 -11   1   3 1766.28  135.30   1 0.00010-0.41970-0.98214-0.51983-0.18813-0.74405
 -11   1  -3 1751.65  162.49   1 0.00009-0.18913-0.99996-0.65630 0.00790-0.73040
 -11  -1   3 1914.92  143.06   1 0.00009-0.49812-0.99993-0.65713 0.01157-0.56572
 -11  -1  -3 1813.79  174.78   1 0.00009-0.26723-0.98556-0.76160 0.16927-0.59037
  11  -1   4 4494.14  203.98   1 0.00009 0.15175 0.99889 0.67511-0.04701 0.72193
  11   1   4 4555.63  207.99   1 0.00009 0.23023 0.97943 0.77529-0.20173 0.58814
 -11   1   4 5116.78  222.22   1 0.00010-0.45813-0.97710-0.49502-0.21276-0.73828
 -11  -1   4 5408.85  222.53   1 0.00009-0.53655-0.99998-0.63740-0.00610-0.55301
 -11   1  -4 4775.59  223.70   1 0.00009-0.15070-0.99892-0.67502 0.04646-0.72223
 -11  -1  -4 4547.36  227.56   1 0.00009-0.22878-0.97952-0.77530 0.20132-0.58870
  11  -3   0 4675.49  207.13   1 0.00010 0.22733 0.97139 0.44936 0.23746 0.86393
 -11   3   0 5001.12  212.18   1 0.00010-0.22648-0.97110-0.44859-0.23866-0.86456
 -11  -3   0 4945.29  239.93   1 0.00008-0.46087-0.95660-0.79293 0.29139-0.39855
  11  -3  -1 1030.09  127.54   1 0.00010 0.26576 0.96251 0.42079 0.27123 0.86735
  11  -3   1 1094.44  128.81   1 0.00010 0.18889 0.97949 0.47716 0.20145 0.85827
  11   3   1 1137.00  130.33   1 0.00008 0.42358 0.95100 0.80729-0.30917 0.41091
 -11   3   1 1164.35  125.06   1 0.00010-0.26490-0.96212-0.41982-0.27261-0.86808
 -11   3  -1 1214.46  137.11   1 0.00010-0.18757-0.97921-0.47649-0.20280-0.85893
 -11  -3   1 1133.96  142.50   1 0.00008-0.49932-0.96083-0.77743 0.27712-0.38245
 -11  -3  -1 1094.57  147.05   1 0.00008-0.42242-0.95127-0.80735 0.30833-0.41199
  11   3   1  909.96  132.03   1-0.10791 0.31599 0.96414 0.82011-0.24244 0.47702
  11  -3  -2  171.84   90.63   1 0.00010 0.30420 0.95312 0.39171 0.30257 0.86834
  11  -3   2  235.86  101.70   1 0.00010 0.15046 0.98656 0.50392 0.16337 0.85054
  11   3   2  206.63   96.04   1 0.00008 0.38521 0.94458 0.82058-0.32825 0.42220
 -11   3   2  249.53  103.16   1 0.00010-0.30332-0.95262-0.39053-0.30414-0.86918
 -11   3  -2  230.88  115.31   1 0.00010-0.14914-0.98636-0.50341-0.16454-0.85107
 -11  -3   2  212.79  111.81   1 0.00008-0.53778-0.96397-0.76083 0.26599-0.36321
 -11  -3  -2  232.34  110.81   1 0.00008-0.38396-0.94484-0.82065 0.32751-0.42318
  11   3   2  168.03  111.53   1-0.11800 0.26753 0.95696 0.83270-0.26511 0.48479
;
_shelx_hkl_checksum              31351
_shelx_res_file
;
    a110.res created by SHELXL-2014/7
TITL ABER110  RB/BR/ME-PIP            New: Amm2
CELL  0.71073   13.477    9.5617    9.850    90.000    90.000    90.000
ZERR       2    0.0030    0.0019    0.0020     0.000     0.000     0.000
LATT  -5
SYMM             - X ,            - Y ,              Z
SYMM             - X ,              Y ,              Z
SYMM               X ,            - Y ,              Z
SFAC  C  H Br  N RB O
UNIT   20 60 12 8 4 2
L.S. 6
FMAP 2
PLAN 20
ACTA
size 0.15 0.10 0.10
rem colourless prism
temp -180
htab
BOND $H
CONF
REM Instructions for potential hydrogen bonds
HTAB N1 O1
HTAB N1 Br3
HTAB N2 Br1
HTAB N2 Br1_$1
HTAB O1 Br2_$3
EQIV $1 -x, -y+1, z
HTAB C1 Br1_$1
EQIV $2 -x+1, -y+1, z
HTAB C1 Br2_$2
HTAB C2 Br1_$1
EQIV $3 x, y+1/2, z+1/2
HTAB C2 Br3_$3
EQIV $4 -x, -y+1/2, z+1/2
HTAB C3 Br1_$4
EQIV $5 x, y, z+1
HTAB C3 Br3_$5
WGHT    0.007600
EXTI    0.003268
FVAR       0.73107   0.92954
mole 1
htab
mole 1
RB1   5    0.000000    0.500000    0.097344    10.25000    0.01115    0.00930 =
         0.01051    0.00000    0.00000    0.00000
RB2   5    0.500000    0.500000   -0.036703    10.25000    0.01136    0.00912 =
         0.00857    0.00000    0.00000    0.00000
BR1   3    0.000000    0.298286    0.397772    10.50000    0.01219    0.00829 =
         0.01222    0.00059    0.00000    0.00000
BR2   3    0.500000    0.256945    0.219769    10.50000    0.01414    0.00867 =
         0.00936    0.00007    0.00000    0.00000
BR3   3    0.253849    0.500000    0.035103    10.50000    0.01121    0.00921 =
         0.01008    0.00000   -0.00124    0.00000
mole 2
C1    1    0.270758    0.629338    0.383824    11.00000    0.01282    0.00766 =
         0.01673    0.00234   -0.00033   -0.00032
AFIX  23
H1A   2    0.211820    0.636645    0.324254    11.00000   -1.20000
H1B   2    0.313048    0.712285    0.367381    11.00000   -1.20000
AFIX   0
C2    1    0.237779    0.628369    0.530343    11.00000    0.01311    0.00545 =
         0.01660   -0.00103    0.00159    0.00086
AFIX  23
H2A   2    0.296606    0.629348    0.590529    11.00000   -1.20000
H2B   2    0.197998    0.713144    0.549500    11.00000   -1.20000
AFIX   0
C3    1    0.138296    0.500000    0.699581    10.50000    0.01850    0.02069 =
         0.00543    0.00000    0.00426    0.00000
AFIX   3
H3A   2    0.098466    0.414881    0.715025    11.00000   -1.50000
H3B   2    0.194499    0.500000    0.763539    10.50000   -1.50000
AFIX   0
N1    4    0.327429    0.500000    0.348568    10.50000    0.01072    0.01219 =
         0.00920    0.00000    0.00254    0.00000
AFIX  23
H1N   2    0.386186    0.500002    0.394090    10.50000   -1.20000
H2N   2    0.340977    0.499999    0.258061    10.50000   -1.20000
AFIX   0
N2    4    0.176637    0.500000    0.558381    10.50000    0.00896    0.00973 =
         0.00735    0.00000   -0.00096    0.00000
AFIX  13
H3N   2    0.118679    0.500001    0.494989    10.50000   -1.20000
AFIX   0
mole 3
O1    6    0.500000    0.500000    0.509677    10.25000    0.01569    0.00622 =
         0.01081    0.00000    0.00000    0.00000
AFIX   3
H1O   2    0.500000    0.574900    0.560683    10.50000   -1.20000
AFIX   0
HKLF 4 1  0.0000  0.0000  1.0000  1.0000  0.0000  0.0000  0.0000  1.0000  0.0000
REM  ABER110  RB/BR/ME-PIP            New: Amm2
REM R1 =  0.0128 for    1244 Fo > 4sig(Fo)  and  0.0132 for all    1264 data
REM     69 parameters refined using      1 restraints
END
WGHT      0.0076      0.0000
REM Instructions for potential hydrogen bonds
HTAB C1 Br1_$1
HTAB C1 Br2_$2
HTAB C2 Br1_$1
HTAB C2 Br3_$3
HTAB C3 Br1_$4
HTAB C3 Br3_$5
HTAB N1 O1
HTAB N1 Br3
HTAB N2 Br1
HTAB N2 Br1_$1
HTAB O1 Br2_$3
REM Highest difference peak  0.269,  deepest hole -0.354,  1-sigma level  0.065
Q1    1   0.4514  0.2043  0.1516  11.00000  0.05    0.27
Q2    1   0.0000  0.4444  0.4032  10.50000  0.05    0.27
Q3    1   0.5491  0.3009  0.1506  11.00000  0.05    0.25
Q4    1   0.1631  0.5000  0.0377  10.50000  0.05    0.24
Q5    1   0.3998  0.2487  0.2181  11.00000  0.05    0.23
Q6    1   0.4521  0.5521  0.0382  11.00000  0.05    0.23
Q7    1   0.4395  0.2003  0.2939  11.00000  0.05    0.23
Q8    1   0.3374  0.5000  0.0790  10.50000  0.05    0.22
Q9    1   0.0686  0.5000  0.1102  10.50000  0.05    0.22
Q10   1   0.0590  0.2332  0.3214  11.00000  0.05    0.21
Q11   1   0.5570  0.2963  0.2852  11.00000  0.05    0.21
Q12   1  -0.0742  0.2956  0.3625  11.00000  0.05    0.20
Q13   1   0.2219  0.5558  0.1079  11.00000  0.05    0.19
Q14   1   0.4125  0.5000 -0.0580  10.50000  0.05    0.18
Q15   1   0.0668  0.5000  0.5630  10.50000  0.05    0.18
Q16   1   0.0000  0.3543  0.4761  10.50000  0.05    0.18
Q17   1   0.1579  0.5000  0.5183  10.50000  0.05    0.18
Q18   1   0.4581  0.5000  0.2400  10.50000  0.05    0.18
Q19   1   0.2576  0.5595 -0.0437  11.00000  0.05    0.18
Q20   1   0.1555  0.5000  0.2870  10.50000  0.05    0.18
;
_shelx_res_checksum              75470
loop_
_space_group_symop_operation_xyz
'x, y, z'
'-x, -y, z'
'-x, y, z'
'x, -y, z'
'x, y+1/2, z+1/2'
'-x, -y+1/2, z+1/2'
'-x, y+1/2, z+1/2'
'x, -y+1/2, z+1/2'
loop_
_atom_site_type_symbol
_atom_site_label
_atom_site_fract_x
_atom_site_fract_y
_atom_site_fract_z
_atom_site_U_iso_or_equiv
_atom_site_adp_type
_atom_site_calc_flag
_atom_site_occupancy
Rb Rb1 0.0000 0.5000 0.09734(7) 0.01032(18) Uani d 1
Rb Rb2 0.5000 0.5000 -0.03670(8) 0.00968(16) Uani d 1
Br Br1 0.0000 0.29829(5) 0.39777(6) 0.01090(14) Uani d 1
Br Br2 0.5000 0.25694(6) 0.21977(6) 0.01073(13) Uani d 1
Br Br3 0.25385(4) 0.5000 0.03510(6) 0.01017(13) Uani d 1
C C1 0.2708(3) 0.6293(4) 0.3838(4) 0.0124(8) Uani d 1
H H1A 0.2118 0.6366 0.3243 0.015 Uiso calc 1
H H1B 0.3130 0.7123 0.3674 0.015 Uiso calc 1
C C2 0.2378(3) 0.6284(4) 0.5303(5) 0.0117(8) Uani d 1
H H2A 0.2966 0.6293 0.5905 0.014 Uiso calc 1
H H2B 0.1980 0.7131 0.5495 0.014 Uiso calc 1
C C3 0.1383(4) 0.5000 0.6996(5) 0.0149(12) Uani d 1
H H3A 0.0985 0.4149 0.7150 0.022 Uiso d 1
H H3B 0.1945 0.5000 0.7635 0.022 Uiso d 1
N N1 0.3274(3) 0.5000 0.3486(5) 0.0107(10) Uani d 1
H H1N 0.3862 0.5000 0.3941 0.013 Uiso calc 1
H H2N 0.3410 0.5000 0.2581 0.013 Uiso calc 1
N N2 0.1766(3) 0.5000 0.5584(4) 0.0087(9) Uani d 1
H H3N 0.1187 0.5000 0.4950 0.010 Uiso calc 1
O O1 0.5000 0.5000 0.5097(5) 0.0109(12) Uani d 1
H H1O 0.5000 0.5749 0.5607 0.013 Uiso d 1
loop_
_atom_site_aniso_label
_atom_site_aniso_U_11
_atom_site_aniso_U_22
_atom_site_aniso_U_33
_atom_site_aniso_U_12
_atom_site_aniso_U_13
_atom_site_aniso_U_23
Rb1 0.0111(4) 0.0093(4) 0.0105(4) 0.000 0.000 0.000
Rb2 0.0114(4) 0.0091(3) 0.0086(3) 0.000 0.000 0.000
Br1 0.0122(3) 0.0083(3) 0.0122(3) 0.000 0.000 0.0006(2)
Br2 0.0141(3) 0.0087(3) 0.0094(3) 0.000 0.000 0.0001(2)
Br3 0.0112(3) 0.0092(3) 0.0101(3) 0.000 -0.0012(2) 0.000
C1 0.013(2) 0.0077(19) 0.017(2) -0.0003(15) -0.0003(17) 0.0023(18)
C2 0.013(2) 0.0054(18) 0.017(2) 0.0009(15) 0.0016(18) -0.001(2)
C3 0.019(3) 0.021(3) 0.005(3) 0.000 0.004(2) 0.000
N1 0.011(2) 0.012(2) 0.009(2) 0.000 0.0025(19) 0.000
N2 0.009(2) 0.010(2) 0.007(2) 0.000 -0.0010(18) 0.000
O1 0.016(3) 0.006(2) 0.011(3) 0.000 0.000 0.000
loop_
_atom_type_symbol
_atom_type_description
_atom_type_scat_dispersion_real
_atom_type_scat_dispersion_imag
_atom_type_scat_source
C C 0.0033 0.0016 'International Tables Vol C Tables 4.2.6.8 and 6.1.1.4'
H H 0.0000 0.0000 'International Tables Vol C Tables 4.2.6.8 and 6.1.1.4'
Br Br -0.2901 2.4595 'International Tables Vol C Tables 4.2.6.8 and 6.1.1.4'
N N 0.0061 0.0033 'International Tables Vol C Tables 4.2.6.8 and 6.1.1.4'
Rb Rb -0.9393 2.9676 'International Tables Vol C Tables 4.2.6.8 and 6.1.1.4'
O O 0.0106 0.0060 'International Tables Vol C Tables 4.2.6.8 and 6.1.1.4'
loop_
_geom_angle_atom_site_label_1
_geom_angle_atom_site_label_2
_geom_angle_atom_site_label_3
_geom_angle_site_symmetry_1
_geom_angle_site_symmetry_3
_geom_angle
_geom_angle_publ_flag
Br1 Rb1 Br1 6_554 5_554 110.85(3) ?
Br1 Rb1 Br3 6_554 2_565 84.255(10) ?
Br1 Rb1 Br3 5_554 2_565 84.255(10) ?
Br1 Rb1 Br3 6_554 . 84.255(10) ?
Br1 Rb1 Br3 5_554 . 84.255(10) ?
Br3 Rb1 Br3 2_565 . 159.68(3) ?
Br1 Rb1 Br1 6_554 2_565 157.67(2) ?
Br1 Rb1 Br1 5_554 2_565 91.481(16) ?
Br3 Rb1 Br1 2_565 2_565 98.498(12) ?
Br3 Rb1 Br1 . 2_565 98.498(12) ?
Br1 Rb1 Br1 6_554 . 91.481(15) ?
Br1 Rb1 Br1 5_554 . 157.67(2) ?
Br3 Rb1 Br1 2_565 . 98.498(12) ?
Br3 Rb1 Br1 . . 98.498(12) ?
Br1 Rb1 Br1 2_565 . 66.19(3) ?
Br3 Rb2 Br3 . 2_665 155.93(3) ?
Br3 Rb2 Br2 . 2_665 81.173(14) ?
Br3 Rb2 Br2 2_665 2_665 81.173(13) ?
Br3 Rb2 Br2 . . 81.172(13) ?
Br3 Rb2 Br2 2_665 . 81.173(14) ?
Br2 Rb2 Br2 2_665 . 85.22(3) ?
Br3 Rb2 Br2 . 6_654 98.376(11) ?
Br3 Rb2 Br2 2_665 6_654 98.376(11) ?
Br2 Rb2 Br2 2_665 6_654 176.93(2) ?
Br2 Rb2 Br2 . 6_654 91.702(16) ?
Br3 Rb2 Br2 . 5_554 98.376(11) ?
Br3 Rb2 Br2 2_665 5_554 98.376(11) ?
Br2 Rb2 Br2 2_665 5_554 91.702(16) ?
Br2 Rb2 Br2 . 5_554 176.93(2) ?
Br2 Rb2 Br2 6_654 5_554 91.37(3) ?
Rb1 Br1 Rb1 5_545 . 157.67(2) y
Rb2 Br2 Rb2 . 5_545 176.93(2) y
Rb2 Br3 Rb1 . . 178.12(3) y
N1 C1 C2 . . 111.6(3) ?
N1 C1 H1A . . 109.3 ?
C2 C1 H1A . . 109.3 ?
N1 C1 H1B . . 109.3 ?
C2 C1 H1B . . 109.3 ?
H1A C1 H1B . . 108.0 ?
N2 C2 C1 . . 110.0(3) ?
N2 C2 H2A . . 109.7 ?
C1 C2 H2A . . 109.7 ?
N2 C2 H2B . . 109.7 ?
C1 C2 H2B . . 109.7 ?
H2A C2 H2B . . 108.2 ?
N2 C3 H3A . . 109.5 ?
N2 C3 H3B . . 109.4 ?
H3A C3 H3B . . 108.6 ?
C1 N1 C1 . 4_565 111.7(4) ?
C1 N1 H1N . . 109.3 ?
C1 N1 H1N 4_565 . 109.3 ?
C1 N1 H2N . . 109.3 ?
C1 N1 H2N 4_565 . 109.3 ?
H1N N1 H2N . . 107.9 ?
C3 N2 C2 . . 111.3(3) ?
C3 N2 C2 . 4_565 111.3(3) ?
C2 N2 C2 . 4_565 109.4(4) ?
C3 N2 H3N . . 108.3 ?
C2 N2 H3N . . 108.3 ?
C2 N2 H3N 4_565 . 108.3 ?
loop_
_geom_bond_atom_site_label_1
_geom_bond_atom_site_label_2
_geom_bond_site_symmetry_2
_geom_bond_distance
_geom_bond_publ_flag
Rb1 Br1 6_554 3.4639(8) y
Rb1 Br1 5_554 3.4639(8) ?
Rb1 Br1 2_565 3.5323(10) ?
Rb1 Br1 . 3.5323(10) y
Rb1 Br3 2_565 3.4756(9) ?
Rb1 Br3 . 3.4756(9) y
Rb2 Br2 2_665 3.4326(9) ?
Rb2 Br2 . 3.4326(9) y
Rb2 Br2 6_654 3.4336(9) y
Rb2 Br2 5_554 3.4336(9) ?
Rb2 Br3 . 3.3919(9) y
Rb2 Br3 2_665 3.3920(9) ?
Br1 Rb1 5_545 3.4639(8) ?
Br2 Rb2 5_545 3.4336(9) ?
C1 N1 . 1.494(4) ?
C1 C2 . 1.510(6) ?
C1 H1A . 0.9900 ?
C1 H1B . 0.9900 ?
C2 N2 . 1.504(4) ?
C2 H2A . 0.9900 ?
C2 H2B . 0.9900 ?
C3 N2 . 1.484(6) ?
C3 H3A . 0.9868 ?
C3 H3B . 0.9852 ?
N1 C1 4_565 1.494(4) ?
N1 H1N . 0.9100 ?
N1 H2N . 0.9100 ?
N2 C2 4_565 1.504(4) ?
N2 H3N . 1.0000 ?
O1 H1O . 0.8748 ?
loop_
_geom_hbond_atom_site_label_D
_geom_hbond_atom_site_label_H
_geom_hbond_atom_site_label_A
_geom_hbond_site_symmetry_A
_geom_hbond_distance_DH
_geom_hbond_distance_HA
_geom_hbond_distance_DA
_geom_hbond_angle_DHA
N1 H1N O1 . 0.91 1.91 2.816(5) 173
N1 H2N Br3 . 0.91 2.49 3.243(4) 140
N2 H3N Br1 . 1.00 2.68 3.448(4) 134
N2 H3N Br1 2_565 1.00 2.68 3.448(4) 134
O1 H1O Br2 5 0.87 2.34 3.212(3) 173
C1 H1A Br1 2_565 0.99 3.01 3.717(4) 129
C1 H1B Br2 2_665 0.99 2.92 3.652(4) 131
C2 H2B Br1 2_565 0.99 3.06 3.531(4) 111
C2 H2B Br3 5 0.99 2.85 3.560(4) 130
C3 H3A Br1 6 0.99 3.03 3.927(4) 152
C3 H3B Br3 1_556 0.99 2.79 3.653(5) 146
loop_
_geom_torsion_atom_site_label_1
_geom_torsion_atom_site_label_2
_geom_torsion_atom_site_label_3
_geom_torsion_atom_site_label_4
_geom_torsion_site_symmetry_4
_geom_torsion
N1 C1 C2 N2 . -56.8(4)
C2 C1 N1 C1 4_565 53.6(5)
C1 C2 N2 C3 . -176.8(3)
C1 C2 N2 C2 4_565 59.8(5)

_cod_database_fobs_code 2243036
