#------------------------------------------------------------------------------
#$Date: 2019-11-06 01:45:19 +0200 (Wed, 06 Nov 2019) $
#$Revision: 223367 $
#$URL: file:///home/coder/svn-repositories/cod/cif/4/00/30/4003085.cif $
#------------------------------------------------------------------------------
#
# This file is available in the Crystallography Open Database (COD),
# http://www.crystallography.net/
#
# All data on this site have been placed in the public domain by the
# contributors.
#
data_4003085
loop_
_publ_author_name
'McCall, Kyle M.'
'Friedrich, Daniel'
'Chica, Daniel G.'
'Cai, Weizhao'
'Stoumpos, Constantinos C.'
'Alexander, Grant C. B.'
'Deemyad, Shanti'
'Wessels, Bruce W.'
'Kanatzidis, Mercouri G.'
_publ_section_title
;
 Perovskites with a Twist: Strong In1+ Off-Centering in the Mixed-Valent
 CsInX3 (X = Cl, Br)
;
_journal_name_full               'Chemistry of Materials'
_journal_paper_doi               10.1021/acs.chemmater.9b04095
_journal_year                    2019
_chemical_formula_moiety         CsInBr3
_chemical_formula_sum            'Br3 Cs In'
_chemical_formula_weight         487.46
_chemical_name_common            Cesium_Indium_Bromide
_space_group_crystal_system      tetragonal
_space_group_IT_number           87
_space_group_name_Hall           '-I 4'
_space_group_name_H-M_alt        'I 4/m'
_atom_sites_solution_primary     dual
_audit_creation_date             2019-03-21
_audit_creation_method
;
Olex2 1.2
(compiled 2018.05.29 svn.r3508 for OlexSys, GUI svn.r5506)
;
_cell_angle_alpha                90
_cell_angle_beta                 90
_cell_angle_gamma                90
_cell_formula_units_Z            20
_cell_length_a                   17.8982(6)
_cell_length_b                   17.8982(6)
_cell_length_c                   11.5351(5)
_cell_measurement_reflns_used    6015
_cell_measurement_temperature    293(2)
_cell_measurement_theta_max      33.1450
_cell_measurement_theta_min      2.0770
_cell_volume                     3695.2(2)
_computing_molecular_graphics    'Olex2 (Dolomanov et al., 2009)'
_computing_publication_material  'Olex2 (Dolomanov et al., 2009)'
_computing_structure_refinement  'ShelXL (Sheldrick, 2015)'
_computing_structure_solution    'ShelXT (Sheldrick, 2015)'
_diffrn_ambient_temperature      293(2)
_diffrn_detector_area_resol_mean 8
_diffrn_measured_fraction_theta_full 0.998
_diffrn_measured_fraction_theta_max 0.999
_diffrn_measurement_device_type  'Bruker Kappa APEX CCD area detector'
_diffrn_measurement_method       '\w and \f scans'
_diffrn_radiation_monochromator  'QuazarTM optics'
_diffrn_radiation_type           MoK\a
_diffrn_radiation_wavelength     0.71073
_diffrn_reflns_av_R_equivalents  0.0448
_diffrn_reflns_av_unetI/netI     0.0214
_diffrn_reflns_Laue_measured_fraction_full 0.998
_diffrn_reflns_Laue_measured_fraction_max 0.999
_diffrn_reflns_limit_h_max       15
_diffrn_reflns_limit_h_min       -22
_diffrn_reflns_limit_k_max       22
_diffrn_reflns_limit_k_min       -21
_diffrn_reflns_limit_l_max       14
_diffrn_reflns_limit_l_min       -14
_diffrn_reflns_number            10925
_diffrn_reflns_point_group_measured_fraction_full 0.998
_diffrn_reflns_point_group_measured_fraction_max 0.999
_diffrn_reflns_theta_full        25.242
_diffrn_reflns_theta_max         26.360
_diffrn_reflns_theta_min         2.100
_diffrn_source                   microsource
_exptl_absorpt_coefficient_mu    24.145
_exptl_absorpt_correction_T_max  0.284
_exptl_absorpt_correction_T_min  0.181
_exptl_absorpt_correction_type   gaussian
_exptl_absorpt_process_details
;
CrysAlisPro 1.171.39.46 (Rigaku Oxford Diffraction, 2018)
Numerical absorption correction based on gaussian integration over
			a multifaceted crystal model
Empirical absorption correction using spherical harmonics,
 implemented in SCALE3 ABSPACK scaling algorithm.
;
_exptl_crystal_colour            yellow
_exptl_crystal_density_diffrn    4.381
_exptl_crystal_description       block
_exptl_crystal_F_000             4180
_exptl_crystal_size_max          0.114
_exptl_crystal_size_mid          0.086
_exptl_crystal_size_min          0.074
_refine_diff_density_max         6.334
_refine_diff_density_min         -4.991
_refine_diff_density_rms         0.539
_refine_ls_extinction_method     none
_refine_ls_goodness_of_fit_ref   1.089
_refine_ls_hydrogen_treatment    undef
_refine_ls_matrix_type           full
_refine_ls_number_parameters     71
_refine_ls_number_reflns         1998
_refine_ls_number_restraints     0
_refine_ls_restrained_S_all      1.089
_refine_ls_R_factor_all          0.1181
_refine_ls_R_factor_gt           0.1001
_refine_ls_shift/su_max          0.000
_refine_ls_shift/su_mean         0.000
_refine_ls_structure_factor_coef Fsqd
_refine_ls_weighting_details
'w=1/[\s^2^(Fo^2^)+(0.1818P)^2^+205.9487P] where P=(Fo^2^+2Fc^2^)/3'
_refine_ls_weighting_scheme      calc
_refine_ls_wR_factor_gt          0.2965
_refine_ls_wR_factor_ref         0.3163
_reflns_Friedel_coverage         0.000
_reflns_number_gt                1538
_reflns_number_total             1998
_reflns_threshold_expression     'I > 2\s(I)'
_cod_data_source_file            cm9b04095_si_005.cif
_cod_data_source_block           fin
_cod_original_cell_volume        3695.2(3)
_cod_database_code               4003085
_shelx_shelxl_version_number     2018/3
_shelx_space_group_comment
;
The symmetry employed for this shelxl refinement is uniquely defined
by the following loop, which should always be used as a source of
symmetry information in preference to the above space-group names.
They are only intended as comments.
;
_oxdiff_exptl_absorpt_empirical_full_min 0.711
_oxdiff_exptl_absorpt_empirical_full_max 1.476
_oxdiff_exptl_absorpt_empirical_details
;
Empirical correction (ABSPACK) includes:
- Absorption correction using spherical harmonics
- Frame scaling
- Detector area scaling
;
_olex2_refinement_description
;
1. Twinned data refinement
 Scales: 0.582(13)
 0.418(13)
;
_shelx_res_file
;
TITL fin_a.res in I4/m
    fin.res
    created by SHELXL-2018/3 at 13:57:05 on 15-Jun-2019
REM Old TITL fin in I4/m
REM SHELXT solution in I4/m: R1 0.221, Rweak 0.005, Alpha 0.015
REM <I/s> 0.000 for 0 systematic absences, Orientation as input
REM Formula found by SHELXT: Br2 In5 Cs3
CELL 0.71073 17.8982 17.8982 11.5351 90 90 90
ZERR 20 0.0006 0.0006 0.0005 0 0 0
LATT 2
SYMM -X,-Y,+Z
SYMM -Y,+X,+Z
SYMM +Y,-X,+Z
SFAC Br Cs In
UNIT 60 20 20

L.S. 10 0 0
PLAN  20
list 4
fmap 2 53
acta
TWIN -0.6 0.8 0 0.8 0.6 0 0 0 -1 2
REM <olex2.extras>
REM <HklSrc "%.\\fin.hkl">
REM </olex2.extras>

WGHT    0.181800  205.948685
BASF   0.41758
FVAR       0.30701
CS1   2    0.000000    0.500000    0.250000    10.25000    0.07632    0.07632 =
         0.06197    0.00000    0.00000    0.00000
CS2   2    0.108825    0.211769    0.277842    11.00000    0.07167    0.10871 =
         0.05259   -0.02254   -0.00319    0.00178
IN1   3    0.000000    0.000000    0.000000    10.12500    0.03235    0.03235 =
         0.02689    0.00000    0.00000    0.00000
IN2   3    0.000000    0.000000    0.500000    10.12500    0.08131    0.08131 =
         0.05445    0.00000    0.00000    0.00000
IN3   3    0.196179    0.407499    0.000000    10.50000    0.03364    0.02834 =
         0.03218    0.00000    0.00000   -0.00194
IN4   3    0.253007    0.083146    0.000000    10.50000    0.08857    0.04871 =
         0.06423    0.00000    0.00000    0.01012
BR1   1    0.000000    0.000000    0.229982    10.25000    0.11147    0.11147 =
         0.02897    0.00000    0.00000    0.00000
BR2   1    0.299689    0.093542    0.265626    11.00000    0.08682    0.06843 =
         0.04031    0.00299    0.00396    0.00539
BR3   1    0.066140    0.134404    0.000000    10.50000    0.05018    0.04031 =
         0.06583    0.00000    0.00000   -0.00783
BR4   1    0.055726    0.361262    0.000000    10.50000    0.03934    0.06602 =
         0.10696    0.00000    0.00000   -0.01160
BR5   1    0.243835    0.264043    0.000000    10.50000    0.05759    0.02860 =
         0.05871    0.00000    0.00000    0.00299
BR6   1    0.451344    0.149711    0.000000    10.50000    0.03410    0.05350 =
         0.04887    0.00000    0.00000   -0.00771
BR7   1    0.337259    0.451806    0.000000    10.50000    0.03943    0.06564 =
         0.08155    0.00000    0.00000   -0.01074
HKLF 4




REM  fin_a.res in I4/m
REM wR2 = 0.3163, GooF = S = 1.089, Restrained GooF = 1.089 for all data
REM R1 = 0.1001 for 1538 Fo > 4sig(Fo) and 0.1181 for all 1998 data
REM 71 parameters refined using 0 restraints

END

WGHT      0.1818    205.4637

REM Highest difference peak  6.334,  deepest hole -4.991,  1-sigma level  0.539
Q1    1   0.3070  0.4380  0.1635  11.00000  0.05    6.33
Q2    1   0.3919  0.1327  0.3376  11.00000  0.05    5.23
Q3    1   0.2753  0.0825 -0.0749  11.00000  0.05    4.03
Q4    1   0.2815  0.0409  0.0000  10.50000  0.05    3.37
Q5    1   0.2006  0.3975 -0.0346  11.00000  0.05    3.16
Q6    1  -0.0174  0.0557  0.5000  10.50000  0.05    3.03
Q7    1   0.0000  0.0000  0.5965  10.25000  0.05    3.00
Q8    1  -0.0361  0.5010  0.2850  11.00000  0.05    2.85
Q9    1   0.0000  0.0000 -0.0404  10.25000  0.05    2.66
Q10   1   0.1009  0.2198  0.2561  11.00000  0.05    2.50
Q11   1   0.0947  0.1851  0.3160  11.00000  0.05    2.47
Q12   1   0.1363  0.2189  0.2726  11.00000  0.05    2.46
Q13   1   0.1007  0.2450  0.2719  11.00000  0.05    2.29
Q14   1   0.4600  0.1619 -0.0344  11.00000  0.05    1.91
Q15   1   0.1469  0.0504 -0.0468  11.00000  0.05    1.38
Q16   1   0.0844  0.3595 -0.0516  11.00000  0.05    1.37
Q17   1  -0.0350  0.1004  0.1616  11.00000  0.05    1.33
Q18   1  -0.0051 -0.0250  0.2017  11.00000  0.05    1.28
Q19   1   0.3642  0.4577  0.0000  10.50000  0.05    1.15
Q20   1   0.2281  0.2993 -0.1640  11.00000  0.05    1.14
;
_shelx_res_checksum              19011
_shelx_hkl_file
;
   0   0  -2 24718.5 87.9096   1
   0   0   2 24077.9 90.4529   1
   0   0  -2 24497.7 90.1812   1
   0   0   2 24586.3 82.7312   1
   0   0  -6 29102.1 180.149   1
   0   0   6 29673.0 159.431   1
   0   0   8 100173. 357.959   2
   0   0  -8 101989. 366.543   1
   0   0  10 14980.7 158.045   2
   0   0 -10 13868.4 166.072   1
   0   0 -12 12163.8 181.814   1
   0   0  12 12342.0 173.911   2
   0   0  14 7011.10 155.802   2
   0   0 -14 6580.43 154.998   1
   1   0   1 11.9684 5.11109   2
  -1   0   1-0.11640 7.41350   1
   0  -1   1 9.05032 4.83604   2
   0   1   1 6.86204 7.72189   1
   1   0  -1 15.0717 7.45987   1
   0   1   1 5.98898 6.46146   1
   1   0  -1-0.41455 7.86838   1
   0  -1  -1 1.98434 6.99079   1
  -1   0   1 10.9653 6.95542   1
   0  -1  -1 8.44687 6.74821   1
  -1   0   3 3829.49 48.8381   1
   1   0   3 3922.57 45.2500   2
   1   0   3 4161.23 37.6857   1
  -1   0  -3 3784.53 42.6164   1
   0  -1  -3 4094.38 50.4264   1
   0   1   3 4037.50 46.3301   1
   0   1  -3 3535.70 40.6581   1
   1   0  -3 3930.36 47.4781   1
   0  -1   3 3615.24 40.3237   1
   0   1  -3 3765.36 43.8512   1
  -1   0  -3 3961.03 41.5229   1
  -1   0   5 1916.72 43.4259   1
   1   0   5 1840.45 40.6413   2
   1   0  -5 1947.33 47.7096   1
   1   0   5 1774.86 35.0071   1
   0  -1   5 1810.15 37.7380   1
   0  -1  -5 1985.32 48.8148   1
   0   1  -5 1842.78 42.7024   1
  -1   0  -5 1945.55 42.3995   1
   0   1   5 2018.68 45.8548   1
   0  -1  -7 1939.28 56.6032   1
   0   1  -7 1991.35 53.7907   1
   0  -1   7 2019.16 49.7264   1
  -1   0  -7 1777.24 50.4579   1
   1   0   7 1991.03 52.4279   2
  -1   0   7 2113.21 52.9002   1
   1   0   7 2006.46 44.6839   1
   0  -1   7 1844.71 50.7765   2
   1   0  -7 1834.39 54.3222   1
   0  -1  -9 707.566 49.7361   1
   0  -1   9 665.996 44.4311   2
   1   0  -9 627.800 52.8438   1
   0   1  -9 606.757 48.2331   1
   1   0   9 560.115 33.8379   1
  -1   0  -9 684.456 53.6037   1
   0   1   9 625.538 40.8848   1
  -1   0   9 581.619 42.5798   1
   1   0   9 775.496 50.2582   2
   0  -1 -11 428.047 60.1380   1
  -1   0 -11 430.437 52.4648   1
   0  -1  11 395.403 53.6196   2
   0   1  11 498.605 55.2832   2
   0   1 -11 469.449 55.7217   1
  -1   0  11 462.413 53.4798   2
   1   0  11 327.987 53.4233   2
   1   0 -11 381.258 55.4802   1
   0  -1  13 30.9830 60.6665   2
   0   1 -13 89.6441 59.4386   1
   0  -1 -13 68.9663 53.3046   1
   1   0 -13 28.8108 57.5396   1
   0   1  13 3.81525 61.8718   2
  -1   0 -13 29.5163 58.7781   1
  -1   0  13 2.89004 61.6669   2
   1   0  13 10.1275 63.3076   2
  -1  -1  -2 756.086 20.2541   1
  -1   1   2 636.342 20.1565   1
   1   1  -2 626.229 20.9732   1
   1   1  -2 669.063 20.8406   1
  -1   1  -2 631.188 13.6968   1
   1  -1  -2 641.502 19.6466   1
   1   1   2 694.524 16.8637   1
   1  -1  -2 738.893 22.9561   1
  -1  -1  -2 750.935 17.5161   1
   1   1   2 733.441 18.8170   1
  -1   1  -2 651.956 13.9475   1
  -1  -1   2 631.605 20.6926   1
   1  -1   2 607.752 16.8398   2
   1  -1  -4 33.1887 23.1267   1
  -1  -1   4 23.4248 17.8555   1
   1   1  -4 43.7987 20.9122   1
  -1  -1  -4 31.3746 19.8889   1
  -1   1   4 44.9745 20.2765   1
   1  -1   4 46.0609 13.5617   1
  -1   1  -4 18.8091 14.3708   1
  -1   1  -4 32.4670 16.9741   1
   1  -1   4 23.7553 15.8427   2
   1   1   4 48.6542 15.9664   1
  -1   1  -6 703.545 33.4435   1
  -1  -1   6 686.554 31.8105   1
   1  -1   6 636.219 31.3011   2
   1   1   6 762.892 29.4185   1
   1  -1  -6 854.362 41.9716   1
   1   1  -6 698.412 37.0432   1
  -1   1   6 693.580 33.1782   1
  -1  -1  -6 843.259 37.1421   1
   1  -1   8 118.214 23.9838   1
  -1  -1  -8 144.052 37.1830   1
   1   1  -8 131.109 37.6689   1
  -1   1  -8 115.565 35.0058   1
  -1  -1   8 132.536 30.0282   1
  -1   1   8 174.690 35.6672   1
   1  -1  -8 142.235 41.0610   1
   1   1   8 93.9335 36.3874   2
   1  -1   8 161.892 35.7952   2
   1   1   8 150.022 26.2596   1
   1   1 -10 318.224 43.4525   1
  -1  -1 -10 538.265 51.7168   1
  -1   1 -10 394.251 45.2736   1
  -1  -1  10 507.549 49.2487   2
  -1   1  10 447.979 43.4080   1
   1  -1 -10 392.683 49.8094   1
   1  -1  10 432.440 51.3142   2
   1   1  10 273.029 46.1691   2
  -1  -1  12 82.8448 52.3820   2
  -1  -1 -12 187.840 61.4970   1
   1  -1  12 23.6738 55.0935   2
   1  -1 -12 99.1674 58.2713   1
  -1   1 -12 18.4529 51.8879   1
  -1   1  12 149.681 59.2680   2
   1   1  12 166.567 58.0321   2
   1   1 -12 92.4269 56.8399   1
   1   1 -14 174.868 69.3197   1
   1  -1 -14 64.5394 57.0800   1
  -1   1 -14 39.4646 63.8036   1
  -1  -1  14 94.0496 63.8690   2
   1   1  14 48.0526 71.5830   2
   1  -1  14 126.948 62.6748   2
  -1  -1 -14 163.187 65.5935   1
  -1   1  14 20.2813 69.5443   2
  -1  -2   1 10503.5 58.7650   1
  -1  -2  -1 9463.80 63.8850   1
  -2   1   1 10107.8 64.2539   1
  -1  -2  -1 10594.1 57.0011   1
  -1  -2   1 10759.0 71.2749   1
   1   2   1 10819.9 55.9355   1
   1   2  -1 10361.5 55.8601   1
   2  -1  -1 9953.07 61.7625   1
   2  -1  -1 10753.8 61.6192   1
  -2   1   1 11007.4 58.7259   1
   1   2   1 9913.28 64.3941   1
   1   2  -1 11196.7 74.7542   1
  -1  -2  -3 22.2115 16.9501   1
   2  -1   3 44.8253 15.4079   2
   1   2  -3 68.8162 16.8220   1
  -2   1  -3 30.0325 11.1224   1
  -2   1   3 61.9066 20.6023   1
   2  -1  -3 19.2031 19.1622   1
  -2   1  -3 51.7708 10.9010   1
   1   2   3 47.0182 15.1929   1
  -1  -2   3 36.5907 17.1773   1
   2  -1  -5 19499.7 148.100   1
   2  -1   5 21021.8 86.2126   1
   1   2  -5 21886.4 140.840   1
   1   2   5 20547.5 124.905   1
  -1  -2  -5 18671.8 143.699   1
   2  -1   5 20293.1 132.145   2
  -1  -2   5 21146.2 130.140   1
  -2   1   5 21713.5 140.756   1
  -2   1  -5 20623.2 117.411   1
  -1  -2  -7 240.034 38.9396   1
   1   2  -7 342.571 36.1782   1
   1   2   7 218.647 26.0642   1
  -2   1   7 265.178 35.9377   1
  -1  -2   7 369.622 33.2271   1
  -2   1  -7 313.597 32.9138   1
  -1  -2   7 287.063 29.5102   2
   2  -1  -7 258.221 41.8272   1
   2  -1   7 288.061 20.7972   1
   2  -1   7 356.178 35.4417   2
  -1  -2   9 8623.88 111.137   2
  -2   1  -9 8250.90 113.966   1
  -1  -2   9 8058.38 111.100   1
   2  -1   9 8715.37 119.536   2
  -1  -2  -9 8451.57 129.895   1
  -2   1   9 8144.04 119.963   1
   1   2   9 8567.55 120.064   2
   1   2  -9 8227.40 121.371   1
   1   2   9 7932.86 99.3257   1
   2  -1  -9 8474.43 128.728   1
  -1  -2 -11 498.481 54.8377   1
  -2   1 -11 681.710 56.9620   1
  -1  -2  11 556.768 53.4864   2
   2  -1 -11 566.597 66.5875   1
   1   2 -11 455.208 52.9121   1
   2  -1  11 568.453 52.8730   2
   1   2  11 461.518 56.2683   2
   1   2 -13 2843.85 104.723   1
   1   2  13 3119.23 113.718   2
   2  -1  13 2705.56 93.8575   2
  -2   1  13 3315.87 107.330   2
   2  -1 -13 3150.51 106.314   1
  -2   1 -13 3100.49 104.195   1
  -1  -2  13 3183.47 104.236   2
  -1  -2 -13 3181.43 105.550   1
   0   2   0 37.8381 7.45899   1
   0  -2   0 43.2709 7.42648   1
   0  -2   0 51.7329 9.63690   1
   0  -2  -2 126.777 15.7064   1
   2   0  -2 129.143 15.6016   1
   0   2  -2 119.160 12.7312   1
   0   2   2 129.465 14.9811   1
  -2   0   2 134.009 17.5876   1
   2   0   2 135.553 12.1976   2
   0  -2   2 109.563 10.8741   2
   0  -2   2 102.022 13.1033   1
   0   2  -2 123.116 13.6917   1
   0  -2  -2 111.887 13.4375   1
   0  -2   2 121.238 11.5195   1
   0  -2   4 15.2691 14.1230   2
  -2   0   4 21.7063 20.3813   1
   2   0   4 13.5627 11.4072   1
   0  -2   4 5.68896 15.2289   1
  -2   0  -4 15.0354 12.5837   1
   2   0  -4-26.3863 22.3910   1
   0   2  -4-11.5949 17.1568   1
   0  -2  -4-14.7360 25.8249   1
   2   0   4-14.5550 18.4175   2
  -2   0  -4 6.63416 15.2529   1
  -2   0  -6 36.1860 23.3045   1
   0  -2   6 10.6457 18.2929   1
   0  -2   6 23.4740 19.5574   2
   2   0   6 21.0903 23.4678   2
   2   0   6 17.2432 15.4227   1
   0   2  -6-2.11427 23.4367   1
   0  -2  -6 27.8254 28.9402   1
  -2   0   6 23.7848 23.8000   1
   0   2   6 25.7339 23.3300   1
   2   0  -6 1.13864 30.0501   1
   0  -2   8 191.498 27.2195   1
   0   2   8 205.045 32.3929   1
   2   0   8 179.643 22.6313   1
  -2   0   8 256.381 36.4661   1
   0  -2  -8 173.416 41.5493   1
  -2   0  -8 148.058 32.6770   1
   2   0   8 160.885 36.1871   2
   2   0  -8 164.186 38.1070   1
   0   2  -8 195.461 36.4623   1
   0  -2   8 209.290 32.6248   2
   2   0 -10 98.9329 47.4344   1
  -2   0 -10 156.711 43.5128   1
   2   0  10 124.603 44.2147   2
  -2   0  10 207.429 41.0603   1
   0   2 -10 65.7729 43.9911   1
   0  -2  10 83.7284 40.3633   2
   0  -2 -10 135.543 47.1462   1
   0   2  12 206.451 57.1439   2
  -2   0  12 121.931 52.7745   2
   0   2 -12 158.416 57.0559   1
   2   0 -12 38.3856 53.7250   1
   0  -2 -12 124.506 53.6285   1
  -2   0 -12 185.727 60.6951   1
   2   0  12 151.012 55.4697   2
   0  -2  12 95.1209 55.0513   2
   0   2 -14 6.25127 57.9560   1
   2   0 -14-69.8360 70.0213   1
  -2   0 -14 125.155 59.1161   1
   2   0  14-10.3135 59.4761   2
   0   2  14 77.6036 69.8313   2
   0  -2 -14 35.9946 59.4835   1
   0  -2  14 31.1924 62.7522   2
  -2   0  14 53.6531 64.7348   2
   2   1   1 4.92673 6.95524   2
   1  -2  -1 13.2806 11.2412   1
   1  -2  -1 16.4110 8.92178   1
   2   1  -1 12.5300 14.0887   1
  -2  -1  -1 5.26997 7.74980   1
  -1   2   1-5.65138 11.2691   1
  -2  -1   1-3.37935 14.1720   1
   2   1  -1 8.65156 10.0828   1
  -2  -1   1-10.8999 10.6047   1
  -2  -1  -1 4.76072 6.87257   1
  -1   2   1 17.0361 10.8975   1
   1  -2   3 3632.57 31.2655   1
   2   1   3 3466.17 43.4561   2
   1  -2  -3 3914.18 53.1163   1
   2   1   3 3914.65 36.8505   1
  -1   2  -3 3557.69 37.9216   1
  -1   2  -3 3351.35 36.9351   1
  -2  -1  -3 3572.48 39.1964   1
  -2  -1  -3 3931.45 42.7005   1
  -2  -1   3 3275.15 50.2713   1
   2   1  -3 3507.59 49.4794   1
  -1   2   3 3685.94 49.8981   1
   1  -2   3 3724.28 44.1373   2
   1  -2   5 3435.94 44.8617   1
   2   1   5 3344.61 46.0221   1
   1  -2  -5 3861.99 69.7573   1
   2   1  -5 3537.38 61.7111   1
   2   1   5 3459.11 55.9065   2
  -1   2   5 3787.59 65.1323   1
   1  -2   5 3419.85 54.4381   2
  -2  -1   5 3436.33 60.3913   1
  -1   2  -5 3197.23 49.9758   1
  -2  -1  -5 3607.76 55.4559   1
   1  -2  -7 5041.18 95.1116   1
  -2  -1   7 3898.33 70.6063   1
   2   1  -7 4342.68 79.5505   1
   1  -2   7 4367.03 75.3516   2
  -1   2  -7 4052.69 69.6289   1
   2   1   7 4344.95 71.7621   2
  -2  -1  -7 4435.49 76.2434   1
   2   1   7 4086.83 59.1525   1
  -1   2   7 4781.06 84.3520   1
  -2  -1   9 2549.41 68.9954   1
   1  -2   9 2493.51 67.4191   2
  -1   2  -9 2620.40 70.1265   1
   2   1  -9 2673.09 77.3183   1
  -1   2   9 2519.13 70.2930   1
  -2  -1  -9 2441.41 68.5784   1
   2   1   9 2528.55 70.7061   2
   1  -2  11 1010.57 60.9320   2
   2   1  11 874.897 62.9939   2
   1  -2 -11 987.636 65.1620   1
   2   1 -11 905.637 66.0526   1
  -2  -1 -11 962.712 68.7512   1
  -1   2 -11 888.816 59.9042   1
  -2  -1  11 844.740 61.4774   2
   1  -2  13 418.538 63.2731   2
   2   1 -13 432.260 66.1106   1
  -1   2  13 516.832 67.7730   2
  -2  -1  13 483.441 66.2689   2
   2   1  13 468.806 68.6732   2
  -1   2 -13 501.516 66.2635   1
  -2  -1 -13 344.579 58.9413   1
   1  -2 -13 372.130 66.8311   1
  -2  -2   0 207.798 13.0419   1
  -2   2   0 213.355 9.56055   1
   2   2   0 210.098 11.3788   1
   2   2   0 271.358 16.3819   1
  -2  -2   0 227.095 16.2646   1
  -2   2   0 233.651 10.2936   1
  -2  -2  -2 462.060 17.1908   1
   2   2   2 501.539 17.4575   2
  -2   2   2 523.388 22.1802   1
  -2  -2   2 467.110 28.0254   1
   2  -2   2 540.443 22.2504   2
  -2  -2  -2 599.220 21.1355   1
   2   2  -2 446.026 22.5137   1
   2   2   2 547.460 17.0518   1
   2  -2  -2 584.288 25.7042   1
   2  -2   4 41.2869 16.8512   2
  -2   2   4 24.1983 20.9149   1
  -2   2  -4 45.6589 12.2247   1
  -2  -2   4 25.4808 20.6598   1
  -2  -2  -4 52.5232 19.3486   1
   2   2   4 52.8161 16.6894   1
   2  -2  -4 44.4268 27.2583   1
  -2   2  -4 52.4355 15.1768   1
   2   2  -4 38.8182 23.0916   1
   2   2   6 378.545 24.8680   1
  -2  -2  -6 388.243 32.6730   1
  -2   2   6 341.178 33.4518   1
   2   2   6 344.641 28.3214   2
   2  -2   6 298.451 27.3154   2
  -2  -2   6 312.626 29.6987   1
   2   2  -6 353.903 32.7371   1
  -2   2  -6 334.791 26.1013   1
   2  -2   6 333.330 16.4082   1
   2  -2  -6 361.768 38.4432   1
   2   2   8 101.425 34.9353   2
  -2  -2   8 102.469 29.8493   1
   2  -2   8 125.161 18.4180   1
   2  -2   8 124.197 31.2038   2
   2   2  -8 103.236 35.7154   1
  -2   2  -8 101.610 31.6100   1
  -2   2   8 154.908 36.4163   1
  -2  -2  -8 122.605 40.3396   1
   2  -2  -8 106.397 41.9287   1
   2   2   8 144.211 27.0270   1
   2  -2  10 46.3872 40.2096   2
   2  -2 -10 46.1996 48.6061   1
   2   2  10 63.1296 43.9228   2
  -2  -2  10 72.3265 33.2018   1
  -2   2 -10 56.3470 41.3895   1
   2   2 -10 116.109 46.7762   1
  -2  -2  10-41.3225 42.1416   2
  -2  -2 -10 76.8228 40.3103   1
   2   2  12 100.775 57.7459   2
  -2  -2  12 27.2677 49.8474   2
   2  -2 -12 16.6096 51.4494   1
   2   2 -12 83.8512 55.5561   1
   2  -2  12-4.61100 48.6629   2
  -2  -2 -12-20.0949 51.9622   1
  -2   2 -12-15.1734 51.8583   1
  -2   2  14-8.81242 65.0388   2
   2   2 -14-19.0711 61.2578   1
   2  -2  14 162.062 65.4317   2
  -2   2 -14-74.6692 60.0890   1
  -2  -2  14 24.4115 62.1739   2
  -2  -2 -14 13.3610 65.7890   1
   2   2  14 17.1327 67.0892   2
   2  -2 -14 116.270 62.0784   1
  -2  -3  -1 1140.95 28.7350   1
   2   3  -1 881.755 23.1190   1
  -2  -3  -1 915.859 24.2553   1
  -3   2   1 878.134 21.8560   1
  -2  -3   1 923.296 29.6952   1
  -3   2   1 1184.57 26.4048   1
   2   3   1 930.363 22.4117   1
   3  -2  -1 1283.36 28.2141   1
   2   3   3 1673.69 34.0129   1
  -3   2   3 1623.95 42.1741   1
  -2  -3   3 1471.05 41.9200   1
   3  -2   3 1528.36 35.0621   2
  -2  -3  -3 1722.58 37.8007   1
   2   3  -3 1633.31 40.3201   1
   3  -2  -3 1728.31 41.8680   1
  -3   2   5 4229.47 69.4522   1
   2   3   5 4847.10 64.5120   1
  -3   2  -5 3851.18 45.4831   1
  -3   2  -5 4500.34 51.3325   1
   3  -2  -5 5134.16 84.6967   1
  -2  -3  -5 5246.68 74.9813   1
  -2  -3   5 4229.46 64.1328   1
   3  -2   5 4805.73 73.0610   2
   2   3  -5 4522.76 67.5140   1
  -2  -3  -7 3224.05 68.1807   1
   2   3   7 3288.20 62.6075   1
   2   3  -7 2840.25 68.8968   1
  -3   2   7 3005.83 74.2433   1
   3  -2  -7 3555.68 89.3575   1
   3  -2   7 3035.91 65.5518   2
  -3   2  -7 2893.89 57.1698   1
   3  -2   7 2931.26 27.7572   1
  -2  -3   7 2733.74 65.7367   1
   3  -2  -9 2621.16 86.0763   1
   2   3   9 2556.93 62.4965   1
  -2  -3  -9 2474.44 71.5743   1
  -3   2   9 2560.26 81.0228   1
  -3   2  -9 2301.76 63.7299   1
   2   3  -9 2279.97 73.1484   1
  -2  -3   9 2387.51 64.0063   2
   2   3   9 2395.83 70.6440   2
  -2  -3   9 2187.07 61.1970   1
   3  -2   9 2457.45 70.0030   2
   2   3 -11 479.764 59.5873   1
   2   3  11 513.681 60.3607   2
   3  -2 -11 527.373 62.5331   1
  -2  -3 -11 506.678 56.0083   1
  -3   2 -11 528.126 52.4220   1
  -2  -3  11 518.302 52.7512   2
   3  -2  11 441.007 52.9891   2
   2   3  13 272.161 68.5610   2
   3  -2  13 172.214 63.2222   2
   3  -2 -13 320.333 67.8767   1
  -2  -3 -13 253.599 63.3974   1
  -3   2 -13 280.673 63.3984   1
   2   3 -13 265.771 61.9117   1
  -2  -3  13 394.729 63.0885   2
  -1  -3   0 37.8593 15.0333   1
  -1  -3   0 14.5671 9.52995   1
   1   3   0 10.7201 10.9337   1
   1   3   0 5.01176 14.1151   1
   1   3  -2 859.825 26.4441   1
  -1  -3   2 599.024 24.9615   1
  -1  -3  -2 828.454 27.0370   1
  -1  -3   2 663.977 16.1195   2
   1   3   2 758.409 24.8346   1
   3  -1  -2 731.716 25.6316   1
  -3   1   2 609.356 24.6831   1
   3  -1   2 706.706 23.9441   2
  -3   1  -4-0.23797 12.5551   1
  -3   1   4-13.0580 24.4376   1
  -1  -3  -4 4.62799 21.3784   1
   1   3  -4-19.1235 19.0598   1
   3  -1   4 18.6618 19.0304   2
  -3   1  -4 7.65528 11.6958   1
  -1  -3   4 0.46669 17.2776   1
  -1  -3   4 7.27383 13.8720   2
   1   3   4 25.5577 19.2812   1
   3  -1  -4 15.2835 22.6221   1
   3  -1   6-11.8243 23.3202   2
  -1  -3  -6-17.0664 29.3351   1
   3  -1  -6 21.8254 30.6817   1
  -3   1  -6-18.7267 21.1651   1
  -1  -3   6 10.8704 19.6877   2
   1   3   6-0.56609 22.2905   1
   1   3  -6 33.3734 28.1985   1
  -1  -3   6 0.49280 21.7799   1
  -3   1   6-12.9152 30.1299   1
   1   3  -8 157.621 36.9965   1
   1   3   8 123.516 29.6747   1
   3  -1   8 110.856 32.0626   2
   3  -1  -8 177.840 43.2414   1
  -1  -3   8 94.5127 25.9061   1
  -3   1   8 130.455 37.7894   1
  -1  -3   8 136.295 28.8004   2
  -1  -3  -8 163.185 42.0881   1
  -3   1  -8 121.573 32.2914   1
   1   3 -10 143.457 45.3382   1
  -1  -3 -10 209.595 47.2005   1
   1   3  10 190.058 49.6003   2
  -1  -3  10 189.056 43.0514   2
   3  -1  10 193.304 43.2113   2
   3  -1 -10 218.752 50.1032   1
  -3   1  10 188.019 45.2928   1
  -3   1 -10 142.864 39.0846   1
  -1  -3  12 235.141 53.8746   2
   1   3  12 405.906 60.4162   2
   3  -1  12 315.768 56.8723   2
  -1  -3 -12 344.011 61.0649   1
   3  -1 -12 386.615 66.1858   1
   1   3 -12 246.595 53.8759   1
  -3   1 -12 370.650 56.5524   1
   1   3  14 160.835 72.3585   2
   1   3 -14 75.8023 61.9854   1
  -1  -3 -14 42.0812 59.6390   1
   3  -1  14 43.5775 66.0852   2
  -1  -3  14 127.329 61.7647   2
   3  -1 -14 56.7517 56.1469   1
  -3   1  14 183.167 65.1253   2
  -3   1 -14 79.0949 68.1785   1
   0  -3  -1 116.369 16.8086   1
   0   3  -1 51.8509 16.8570   1
   0   3  -1 57.8563 10.9358   1
   0   3   1 60.5995 13.5355   1
  -3   0   1 91.1671 16.5963   1
   0   3   1 109.063 15.7067   1
  -3   0   1 102.415 12.6772   1
   3   0  -1 85.8678 13.1226   1
   3   0  -1 113.866 16.3112   1
   0  -3   1 47.0541 13.8454   1
   0  -3   1 50.9246 10.2642   1
  -3   0  -3 6700.36 44.6842   1
   3   0   3 6485.04 63.0991   2
  -3   0  -3 6732.29 44.2738   1
  -3   0   3 6808.20 71.9754   1
   0   3   3 7126.84 70.7953   1
   0  -3  -3 7456.50 76.9678   1
   0   3  -3 6103.38 64.1143   1
   3   0  -3 6880.94 71.1192   1
   0  -3   3 6198.36 56.5777   1
   0   3  -3 6468.78 57.4920   1
   0  -3   3 6389.47 55.7904   2
   3   0   5 1047.00 35.4328   2
   0   3   5 1119.18 39.0568   1
   0   3  -5 853.935 31.1455   1
   0  -3   5 928.508 28.5031   1
  -3   0   5 984.218 41.0134   1
   0  -3   5 1031.72 33.3424   2
  -3   0  -5 899.484 28.2267   1
   3   0  -5 1124.27 43.8797   1
   0  -3  -5 1153.89 42.1883   1
  -3   0  -5 991.383 30.1534   1
   0  -3   7 5017.79 76.1711   2
   3   0   7 5395.08 54.5370   1
   0  -3  -7 5876.75 94.9298   1
  -3   0  -7 5188.61 73.5294   1
   3   0  -7 5464.98 91.4403   1
   0  -3   7 5077.52 68.1770   1
  -3   0   7 5482.99 95.0695   1
   0   3   7 5354.55 85.4219   1
   0   3  -7 4579.57 74.5853   1
   3   0   7 5318.16 84.2055   2
   0  -3  -9 203.266 45.2015   1
  -3   0   9 250.155 41.5992   1
   0   3   9 258.394 35.4682   1
   0   3  -9 198.660 40.4173   1
  -3   0  -9 274.295 39.1822   1
   3   0   9 318.827 44.8403   2
   3   0  -9 262.765 49.5300   1
   0  -3   9 236.553 37.8839   2
   0   3  11 1369.64 70.9922   2
   0  -3 -11 1416.93 72.5548   1
  -3   0 -11 1393.36 68.5157   1
   3   0  11 1143.46 65.7682   2
   3   0 -11 1274.05 72.5340   1
   0  -3  11 1441.51 68.9556   2
   0   3 -11 1221.55 70.2421   1
   0   3 -13 11.0787 56.0870   1
   3   0  13-108.908 58.6699   2
   0   3  13-2.75772 61.8297   2
  -3   0 -13-2.85955 62.6639   1
   3   0 -13-27.4421 61.3076   1
   0  -3  13 89.3311 55.5027   2
   0  -3 -13-27.1910 62.3716   1
  -3   0  13 123.788 61.3460   2
  -1   3   0 16972.2 66.1220   1
  -1   3   0 16206.9 83.7838   1
   3   1   0 15776.3 66.3939   1
   1  -3   0 16348.5 78.5639   1
   3   1   0 16724.8 76.9742   1
  -3  -1   0 16016.0 78.4869   1
  -3  -1   0 15734.0 72.3320   1
  -3  -1  -2 104486. 160.628   1
  -1   3   2 101890. 258.959   1
  -1   3  -2 103844. 184.594   1
   3   1  -2 105064. 231.063   1
   1  -3   2 102485. 224.777   2
   1  -3   2 103366. 151.557   1
   1  -3  -2 101065. 273.439   1
  -1   3  -2 103638. 207.548   1
  -3  -1   2 105573. 267.149   1
  -3  -1  -2 103368. 179.106   1
   3   1   2 104392. 215.428   2
  -3  -1   4 9374.48 97.2782   1
   3   1   4 9581.51 53.4807   1
  -1   3   4 9328.92 97.0121   1
   3   1  -4 9793.23 93.0495   1
  -3  -1  -4 9125.92 70.6784   1
   1  -3  -4 10512.8 108.923   1
   1  -3   4 8465.99 76.1326   2
   3   1   4 9680.52 87.1054   2
   1  -3   4 8329.83 58.4331   1
  -1   3  -4 8711.40 76.8949   1
  -3  -1  -4 9445.57 72.4374   1
  -1   3  -4 8820.79 73.7888   1
   3   1  -6 17365.8 145.677   1
  -3  -1   6 18159.3 152.306   1
   3   1   6 17729.0 100.273   1
  -1   3   6 19208.8 146.041   1
  -1   3  -6 19006.5 124.378   1
   1  -3  -6 17234.3 151.712   1
   3   1   6 16766.3 139.999   2
   1  -3   6 20175.0 105.706   1
  -3  -1  -6 17049.5 127.757   1
   1  -3   6 19385.6 132.306   2
   1  -3  -8 9523.43 122.871   1
   3   1   8 10409.4 126.057   2
  -3  -1  -8 9976.84 116.827   1
  -3  -1   8 9010.31 116.732   1
   3   1   8 9815.61 86.7979   1
  -1   3  -8 9596.29 115.040   1
   1  -3   8 9976.34 112.883   2
  -1   3   8 10031.2 125.463   1
   3   1  -8 9951.85 135.528   1
  -3  -1 -10 1290.76 64.4815   1
   1  -3 -10 1472.16 74.6817   1
   3   1  10 1373.94 66.5146   2
   3   1 -10 1215.98 66.1249   1
  -1   3 -10 1443.15 64.6331   1
   1  -3  10 1288.82 59.1609   2
  -1   3  10 1239.79 58.6711   1
  -3  -1  10 1382.45 62.4252   1
   1  -3 -12 5262.63 123.570   1
  -3  -1  12 5122.84 120.751   2
   3   1  12 4823.86 115.968   2
   3   1 -12 5317.40 128.180   1
   1  -3  12 5038.93 110.162   2
  -3  -1 -12 5416.53 118.593   1
  -1   3 -12 4897.98 114.673   1
  -1   3  12 4991.34 118.809   2
  -3  -1 -14 472.661 67.3894   1
   3   1  14 451.212 73.6005   2
  -3  -1  14 524.490 72.6069   2
   3   1 -14 449.896 78.4078   1
  -1   3  14 363.760 72.9836   2
   1  -3 -14 496.754 72.6983   1
  -1   3 -14 489.902 74.4872   1
   1  -3  14 484.751 69.2410   2
   3   2  -1 97.3392 15.8373   1
  -2   3  -1 110.912 11.1438   1
  -3  -2   1 71.8364 20.1308   1
  -3  -2  -1 103.690 11.2459   1
   3   2   1 94.6913 9.84840   2
  -3  -2  -1 96.3109 13.3060   1
   3   2   1 101.397 10.5969   1
  -2   3   1 106.676 15.3703   1
   2  -3  -1 121.510 17.6438   1
  -2   3   1 117.201 16.4071   1
   3   2   1 123.806 14.5874   1
   3   2   3 4009.18 40.2517   1
  -2   3  -3 3487.84 36.0707   1
   2  -3  -3 3722.51 59.1151   1
  -3  -2  -3 3684.97 45.9141   1
  -2   3  -3 3349.64 34.9276   1
  -3  -2   3 3510.08 59.3116   1
   3   2  -3 3481.50 53.6135   1
   2  -3   3 3479.21 48.8885   2
  -3  -2  -3 3778.29 46.3148   1
   3   2   3 3775.67 51.4784   2
  -2   3   3 3688.89 55.5109   1
  -2   3  -5 1205.65 33.6826   1
  -2   3   5 1103.75 43.2293   1
   3   2   5 1222.59 37.2692   2
  -3  -2  -5 1187.71 34.1923   1
   3   2   5 1191.20 28.8540   1
  -3  -2   5 1065.34 40.3101   1
   3   2  -5 1185.51 43.8944   1
   2  -3   5 1091.68 36.0887   2
   3   2   7 2780.84 50.2810   1
   2  -3   7 2422.94 57.2127   2
  -3  -2   7 2581.09 66.9645   1
   2  -3   7 2474.42 35.6830   1
  -3  -2  -7 2657.34 61.6662   1
   3   2  -7 2765.96 71.1676   1
  -2   3  -7 2410.01 54.0868   1
   2  -3  -7 2907.94 70.2847   1
   3   2   7 2779.52 63.0070   2
  -2   3   7 2890.52 71.2979   1
  -3  -2  -9 347.368 41.1438   1
   2  -3   9 251.667 37.9287   2
   3   2  -9 418.287 49.7854   1
   3   2   9 239.858 45.2475   2
  -2   3  -9 354.872 41.1183   1
  -3  -2   9 203.160 37.2518   1
   2  -3  -9 289.143 44.9291   1
   3   2 -11 547.706 59.8457   1
   2  -3 -11 541.243 59.8822   1
   3   2  11 679.479 63.1544   2
  -2   3 -11 588.243 57.6130   1
  -3  -2  11 551.258 57.2232   2
  -3  -2 -11 728.844 62.8163   1
   2  -3  11 628.115 54.5570   2
   2  -3  13 47.1364 57.1892   2
   3   2  13 101.711 62.5059   2
  -2   3 -13-6.97444 57.0736   1
   2  -3 -13 89.5408 64.0658   1
  -3  -2 -13 107.473 57.0999   1
  -2   3  13 94.6422 61.2581   2
  -3  -2  13-36.5673 57.7173   2
   3   2 -13-4.59222 58.8325   1
  -3   3   0 2303.68 29.1281   1
  -3  -3   0 2171.12 39.9003   1
   3   3   0 2138.42 32.1382   1
  -3   3   0 1979.23 25.7186   1
   3  -3   0 1984.00 23.3373   1
  -3  -3   2 391.034 29.2104   1
  -3   3   2 460.303 25.3924   1
   3   3   2 470.678 19.3694   1
   3   3   2 458.974 18.3764   2
  -3  -3  -2 546.866 25.4406   1
   3  -3  -2 473.461 25.8725   1
   3   3  -2 490.196 27.9050   1
   3  -3   4 1226.12 36.5988   2
  -3  -3   4 1227.91 45.1289   1
  -3   3  -4 1186.16 23.4748   1
   3   3   4 1200.20 29.6440   1
  -3   3   4 1302.61 43.6084   1
   3   3   4 1273.01 34.3751   2
  -3   3  -4 1163.48 24.2642   1
  -3  -3  -4 1312.95 36.7729   1
   3   3  -4 1179.28 39.3161   1
   3   3   6 455.468 26.8588   1
  -3   3   6 397.741 37.5481   1
   3   3   6 449.483 32.8510   2
  -3  -3  -6 401.859 35.1128   1
   3  -3  -6 449.853 38.3970   1
  -3  -3   6 336.347 32.3621   1
   3  -3   6 450.979 32.9412   2
   3   3  -6 387.632 34.4473   1
  -3   3  -6 363.085 24.2382   1
  -3   3   8-11.1444 40.5253   1
  -3  -3   8-30.2453 34.7749   1
   3   3   8 45.2548 24.6286   1
   3   3   8 19.9540 33.3038   2
  -3   3  -8 52.0445 29.4943   1
   3   3  -8 81.3505 37.5792   1
   3  -3  -8 15.2347 38.2418   1
  -3  -3  -8 43.7980 33.9152   1
   3  -3   8-11.7134 33.0296   2
   3   3 -10 757.578 58.2203   1
  -3  -3 -10 731.458 56.0561   1
   3   3  10 767.803 58.3132   2
  -3   3  10 689.543 57.7713   1
  -3  -3  10 806.611 54.0498   2
  -3  -3  10 665.634 47.8446   1
  -3   3 -10 718.233 50.6045   1
   3  -3  10 692.228 52.7329   2
   3  -3 -10 652.425 62.2049   1
  -3  -3 -12 89.1988 53.7239   1
   3   3  12-14.8909 55.3161   2
  -3   3 -12 29.7981 49.1381   1
   3  -3 -12 120.764 56.7126   1
  -3  -3  12-50.4812 50.1779   2
   3  -3  12 116.016 50.1715   2
   3   3 -12-46.8879 52.9520   1
  -3   3 -14 252.864 67.0329   1
  -3  -3 -14 239.832 61.1012   1
  -3  -3  14 271.029 66.3245   2
  -3   3  14 378.706 71.9178   2
   3   3  14 212.836 71.0662   2
   3  -3  14 270.622 64.5982   2
   3  -3 -14 281.406 70.4974   1
   3   3 -14 214.009 66.2838   1
   3   4  -1 5205.71 58.2188   1
  -4   3   1 5551.88 54.2268   1
  -4   3   1 6172.78 59.4491   1
  -3  -4   1 5344.50 74.7807   1
   4  -3  -1 5957.53 54.9347   1
   3   4   1 5877.50 40.5401   2
  -3  -4  -1 6026.49 66.1296   1
   3   4   1 5623.54 58.3600   1
   4  -3  -3 10827.9 101.890   1
  -4   3   3 10209.1 102.903   1
  -3  -4  -3 11220.8 95.2553   1
  -3  -4   3 9923.47 108.999   1
   3   4   3 10603.0 80.8409   1
   3   4  -3 10690.9 99.9327   1
  -4   3   5 189.619 30.3858   1
  -3  -4  -5 172.819 23.8432   1
   4  -3   5 207.160 27.1943   2
   3   4   5 261.279 23.7738   1
   4  -3  -5 226.127 35.2911   1
  -4   3  -5 209.325 15.8145   1
  -3  -4   5 180.632 32.9995   1
  -4   3  -5 182.347 16.4321   1
   3   4  -5 195.247 28.9471   1
   3   4   7 4553.14 82.5474   2
  -4   3  -7 4248.11 66.1138   1
  -4   3   7 4837.82 95.3449   1
   3   4  -7 4493.40 88.1402   1
  -3  -4  -7 4494.34 81.3379   1
   3   4   7 5170.59 75.5162   1
   4  -3   7 4019.51 77.3535   2
   4  -3  -7 4820.64 91.8945   1
  -3  -4   7 4437.46 85.1955   1
  -4   3   9 16.7756 45.8920   1
  -3  -4  -9 5.28014 39.5633   1
  -3  -4   9 40.3493 35.3392   1
   3   4  -9-49.6325 39.4671   1
  -3  -4   9 6.66993 32.0078   2
   4  -3   9 31.5401 38.3618   2
   4  -3  -9 44.5590 42.7261   1
   3   4   9-62.9734 40.5448   2
  -4   3  -9 3.61248 32.7424   1
   3   4  11 817.586 69.6671   2
  -4   3 -11 874.738 61.2976   1
  -3  -4 -11 838.609 65.5479   1
   4  -3 -11 598.946 65.1685   1
   3   4 -11 786.688 65.5847   1
  -3  -4  11 773.995 56.9851   2
  -4   3  11 919.808 72.2641   1
   4  -3  11 665.400 55.5441   2
  -3  -4 -13 51.8339 58.3618   1
   4  -3  13 109.944 58.3409   2
   3   4 -13 101.225 58.3467   1
  -3  -4  13-39.5785 56.9133   2
  -4   3 -13 66.3095 55.2405   1
   4  -3 -13-25.2555 59.1771   1
   3   4  13 192.461 67.4110   2
  -2  -4   0 136396. 332.314   1
  -4   2   0 135844. 185.302   1
  -4   2   0 137318. 203.203   1
  -2  -4  -2 208107. 406.027   1
   2   4   2 212043. 356.519   1
   2   4  -2 208178. 388.070   1
   4  -2  -2 207604. 404.819   1
  -2  -4   2 210287. 416.738   1
  -4   2   2 210575. 363.295   1
   2   4   4 68485.2 235.409   1
   4  -2  -4 70026.5 286.319   1
   2   4  -4 69603.6 257.597   1
  -2  -4  -4 67918.5 256.866   1
  -2  -4   4 69866.3 260.256   1
  -4   2   4 68929.0 275.485   1
  -4   2  -4 67063.9 123.984   1
   4  -2   4 67790.6 240.500   2
  -2  -4   6 47607.6 210.199   1
   2   4   6 41530.8 222.186   1
  -4   2  -6 43909.4 178.185   1
  -2  -4   6 44275.0 187.221   2
   2   4  -6 45589.3 220.809   1
  -4   2  -6 43892.9 171.586   1
  -4   2   6 40244.5 259.654   1
   4  -2   6 44703.1 226.220   2
   4  -2  -6 40272.1 259.275   1
  -4   2  -8 6989.55 92.8699   1
   4  -2   8 7640.98 116.829   2
   2   4   8 7129.51 100.852   1
  -4   2   8 7006.67 119.909   1
  -2  -4   8 6704.48 100.394   1
  -2  -4  -8 6837.01 109.206   1
   2   4  -8 7361.20 112.119   1
   4  -2  -8 7380.16 124.437   1
  -2  -4   8 7141.70 92.5475   2
   4  -2  10 296.713 53.2990   2
   2   4  10 281.600 50.1937   2
   2   4 -10 239.177 50.4890   1
  -4   2 -10 275.950 43.6977   1
  -2  -4  10 245.072 43.8992   2
  -2  -4 -10 201.275 48.4597   1
  -4   2  10 181.020 51.1292   1
   4  -2 -10 268.987 59.2202   1
  -2  -4  12 230.226 52.1484   2
  -4   2 -12 146.499 52.1201   1
   4  -2  12 171.386 55.1746   2
   2   4  12 255.347 59.9603   2
   4  -2 -12 176.218 54.3620   1
  -2  -4 -12 287.655 56.5021   1
   2   4 -12 207.026 60.4294   1
   2   4 -14 677.573 75.0730   1
   4  -2  14 849.452 78.8195   2
   2   4  14 843.014 87.1056   2
  -4   2 -14 790.006 80.0139   1
  -2  -4 -14 748.635 78.3472   1
  -2  -4  14 795.231 74.6508   2
   4  -2 -14 743.102 74.7091   1
  -4   2  14 644.311 71.9594   2
   1   4   1 4.63457 14.6738   1
   4  -1  -1-3.55446 14.3352   1
  -1  -4  -1 2.15939 19.7507   1
   1   4  -1 4.70583 14.9297   1
  -4   1   1 8.63191 14.7982   1
  -1  -4   1 28.0659 19.7069   1
  -4   1   1-2.45199 13.6525   1
  -1  -4  -3 1728.47 43.5177   1
  -1  -4   3 1500.82 28.1253   2
  -1  -4   3 1560.94 40.0262   1
   4  -1  -3 1742.45 43.8160   1
  -4   1   3 1593.50 43.2262   1
   4  -1   3 1505.86 35.6398   2
   1   4   3 1722.31 41.2295   1
   1   4  -3 1414.16 34.7422   1
   1   4  -5 972.221 35.5703   1
  -4   1  -5 1041.22 26.9228   1
  -4   1  -5 1213.82 28.2852   1
  -1  -4  -5 1301.61 46.4611   1
   4  -1   5 1107.73 39.6637   2
  -1  -4   5 1078.21 34.4588   1
  -4   1   5 1211.22 48.1494   1
   4  -1  -5 1251.69 46.6943   1
   1   4   5 1070.85 37.5830   1
  -1  -4   5 991.830 31.4796   2
  -1  -4   7 2097.23 51.9422   2
   4  -1  -7 2259.21 68.2553   1
   1   4  -7 2334.65 63.8373   1
  -1  -4   7 2282.17 52.9531   1
   1   4   7 2333.28 58.2965   1
  -1  -4  -7 2391.01 65.6848   1
  -4   1  -7 2200.65 49.2381   1
  -4   1   7 2110.05 69.9715   1
   4  -1   7 2202.95 57.5149   2
   1   4  -9 792.391 52.8869   1
  -1  -4   9 756.043 38.7495   1
  -1  -4   9 622.766 42.8412   2
  -4   1  -9 799.281 43.8561   1
   4  -1   9 618.452 48.3031   2
   1   4   9 721.773 45.0637   1
  -4   1   9 737.080 55.0151   1
   4  -1  -9 722.144 55.5171   1
  -1  -4  -9 744.677 56.9390   1
  -4   1  11 437.163 57.5322   1
   1   4  11 416.044 57.6804   2
   1   4 -11 521.687 57.4528   1
   4  -1  11 421.601 52.6580   2
  -1  -4 -11 438.757 59.0068   1
  -4   1 -11 481.212 52.5670   1
  -1  -4  11 488.151 56.0763   2
   4  -1 -11 578.177 65.6181   1
  -4   1 -13-2.77827 55.7807   1
  -1  -4  13 81.5265 52.3387   2
   1   4  13 83.0325 62.3492   2
   4  -1 -13 78.6121 59.2075   1
   1   4 -13 3.02034 54.2707   1
  -1  -4 -13-15.0557 53.9830   1
   4  -1  13 65.5931 64.1856   2
  -4   0   0 1206.15 20.7735   1
  -4   0   0 1229.04 25.7372   1
   0   4   0 1192.24 31.0592   1
   0  -4   0 1140.88 29.8052   1
   4   0   2 113.845 16.2323   2
   0   4  -2 110.471 19.5078   1
  -4   0   2 133.623 23.6384   1
   0  -4   2 91.0741 12.5932   2
   0   4  -2 97.5116 15.3847   1
   0   4   2 126.608 20.2628   1
   0  -4   2 127.603 19.4054   1
   4   0  -2 128.541 20.1702   1
   0  -4  -2 131.876 23.2729   1
   0   4   4 1964.00 45.6518   1
  -4   0   4 1957.42 52.1158   1
  -4   0  -4 1896.51 29.1844   1
   0   4  -4 1856.81 40.6437   1
   0  -4   4 1661.81 33.9438   1
  -4   0  -4 1928.87 29.2292   1
   0  -4   4 1902.64 37.6507   2
   0  -4  -4 1972.83 47.9596   1
   4   0  -4 2055.30 52.1365   1
   4   0   4 1778.38 42.5438   2
   0   4  -6 131.804 26.6590   1
   0  -4   6 87.9798 23.0078   2
  -4   0  -6 123.233 21.0751   1
   0   4   6 112.343 27.2026   1
  -4   0   6 101.858 33.1369   1
   0  -4  -6 122.330 32.5478   1
   0  -4   6 107.315 20.4130   1
   4   0  -6 130.486 31.3003   1
   4   0   6 106.663 27.9113   2
   4   0   8 1088.65 50.0540   2
   4   0  -8 1105.22 56.4485   1
   0   4  -8 930.994 48.2498   1
  -4   0  -8 1137.71 46.4050   1
   0  -4   8 1088.94 37.5775   1
   0   4   8 1065.82 50.3964   1
   0  -4   8 1068.21 45.8723   2
   0  -4  -8 1223.75 60.7904   1
  -4   0   8 1064.46 55.0342   1
   0   4  10 16.9181 35.7484   1
   0  -4 -10 95.7096 50.6090   1
   4   0  10 11.2213 42.0893   2
  -4   0 -10 44.3970 37.9984   1
   0   4 -10-50.9157 43.1706   1
   4   0 -10 31.2702 46.2129   1
  -4   0  10-7.46198 43.6186   1
   0  -4  10-28.1685 36.8060   2
   0   4 -12 135.757 56.0436   1
   0  -4  12 157.868 45.6054   2
  -4   0 -12 310.383 57.6653   1
   4   0  12 215.832 58.8393   2
   0  -4 -12 277.937 58.8727   1
   4   0 -12 231.709 60.1939   1
   0   4  12 264.755 64.6764   2
   0  -4  14 122.630 59.2989   2
   0  -4 -14 17.4524 57.7893   1
   4   0 -14-91.0825 72.0925   1
   4   0  14-117.262 74.3458   2
  -4   0  14 140.085 67.6386   2
   0   4 -14 34.6819 61.0161   1
  -4   0 -14-9.14074 55.3889   1
   0   4  14 55.3777 68.7266   2
   1  -4  -1 13.6205 17.4175   1
  -4  -1   1 22.4516 20.7027   1
  -4  -1  -1 4.48127 9.13106   1
   1  -4   1 3.18928 16.2518   1
  -4  -1   1 2.00764 13.0061   1
  -1   4   1 5.13398 16.2596   1
   4   1  -1-0.08914 14.1907   1
  -1   4  -1 10.9556 12.6864   1
  -4  -1  -1 18.9750 9.58194   1
  -1   4  -1 9.00254 17.1285   1
   4   1   3 611.133 24.8968   2
  -4  -1  -3 628.929 17.9411   1
  -1   4   3 597.065 31.3135   1
   1  -4   3 513.500 16.6640   1
  -1   4  -3 547.174 22.9588   1
   1  -4   3 579.679 23.2474   2
  -4  -1  -3 680.818 19.3711   1
   4   1  -3 633.870 29.0540   1
  -4  -1   3 770.614 37.5292   1
   1  -4  -3 784.977 37.0453   1
  -1   4  -3 637.686 22.9078   1
   1  -4   5 804.891 24.0449   1
  -4  -1   5 955.512 44.3889   1
  -4  -1  -5 858.684 28.8293   1
   1  -4  -5 906.643 41.3442   1
  -1   4   5 859.854 39.8023   1
   4   1   5 914.292 35.5804   2
   1  -4   5 794.160 31.1528   2
   4   1  -5 857.060 38.3283   1
  -1   4  -5 822.937 33.7649   1
  -1   4  -7 920.708 39.1308   1
   1  -4  -7 1208.48 58.0783   1
  -1   4   7 1016.17 48.6432   1
  -4  -1  -7 1166.49 41.2628   1
  -4  -1   7 1031.41 53.2181   1
   1  -4   7 977.013 30.1902   1
   4   1  -7 1251.64 55.5770   1
   1  -4   7 950.276 39.0924   2
   4   1   7 1006.72 44.1247   2
   1  -4   9 644.524 42.7750   2
   1  -4  -9 821.592 63.9178   1
  -4  -1  -9 810.955 50.9454   1
  -4  -1   9 731.388 50.7990   1
  -1   4   9 750.570 50.4662   1
   4   1   9 664.677 50.3251   2
  -1   4  -9 610.306 46.9218   1
   4   1  -9 669.390 53.2760   1
   4   1 -11 18.4313 50.9571   1
  -4  -1 -11 4.27345 44.7265   1
   1  -4  11 31.8874 43.1525   2
  -1   4 -11 49.4566 47.2455   1
   4   1  11-18.9595 50.4716   2
   1  -4 -11 76.5581 56.2033   1
  -1   4  13 166.032 66.8199   2
  -4  -1  13 153.707 63.2756   2
   1  -4 -13 101.438 58.4708   1
   4   1  13 109.355 62.2213   2
  -1   4 -13 161.892 56.3562   1
   4   1 -13 92.6359 55.4709   1
  -4  -1 -13 93.5505 58.0306   1
   1  -4  13 172.015 59.3404   2
  -4  -2   0 595.260 26.0022   1
  -4  -2   0 600.622 21.2577   1
   2  -4   0 591.969 21.2058   1
   4   2   0 566.270 20.0571   1
  -2   4   0 575.612 21.1766   1
  -2   4   0 568.860 20.8102   1
  -4  -2   2 3588.95 62.0460   1
  -2   4  -2 4033.14 43.0979   1
   4   2   2 4057.07 34.1448   1
   2  -4  -2 4694.83 64.2626   1
  -2   4  -2 3729.76 36.3473   1
  -4  -2  -2 4409.60 44.9145   1
  -4  -2  -2 4385.37 44.5011   1
   4   2   2 4068.79 44.9939   2
   4   2  -2 3798.40 52.5216   1
  -2   4   2 4099.53 57.1449   1
  -4  -2  -4 71.4967 18.4752   1
   2  -4  -4 42.9772 27.7320   1
  -2   4  -4 25.1601 16.0839   1
  -4  -2   4 85.1400 30.7471   1
  -2   4   4 6.67405 24.8255   1
   2  -4   4 47.8578 19.6685   2
  -2   4  -4 55.7639 15.7447   1
  -4  -2  -4-3.57869 15.5698   1
   4   2   4 49.1496 18.5052   2
   4   2  -4 24.0999 22.9494   1
   4   2   4 32.9854 12.3780   1
   2  -4   6 1089.17 40.8633   2
   2  -4  -6 1407.79 56.4207   1
  -2   4   6 1359.95 53.1673   1
   4   2   6 1309.75 28.5755   1
  -4  -2   6 1108.30 45.3579   1
   4   2  -6 1343.87 50.3171   1
  -2   4  -6 1085.58 36.4667   1
   4   2   6 1338.83 45.6471   2
  -4  -2  -6 1199.99 39.0156   1
  -4  -2   8 72.3142 40.2469   1
   4   2  -8 65.2520 39.7550   1
  -4  -2  -8 53.0816 30.6480   1
   4   2   8 40.9228 35.1843   2
  -2   4  -8 39.5220 30.1712   1
   2  -4   8 52.4124 32.1247   2
   2  -4  -8 75.9083 43.9559   1
   4   2 -10 337.066 53.3058   1
   2  -4 -10 518.196 66.3412   1
   2  -4  10 372.009 47.5870   2
  -2   4 -10 359.392 47.2654   1
  -4  -2 -10 411.848 50.5010   1
  -2   4  10 407.606 51.5282   1
   4   2  10 492.017 57.3547   2
  -4  -2  10 427.914 49.7243   1
  -4  -2 -12 42.6889 51.3419   1
  -2   4 -12 42.4235 55.4960   1
   2  -4  12 19.7497 53.1940   2
   4   2  12 31.5573 54.8391   2
  -4  -2  12 32.6099 55.6274   2
   2  -4 -12 71.1342 57.2033   1
   4   2 -12 63.7657 55.5448   1
  -2   4 -14-51.4645 62.5650   1
   4   2  14 31.4010 66.6007   2
   4   2 -14 15.2992 59.6038   1
  -2   4  14-53.9071 76.2262   2
  -4  -2  14-108.322 64.6833   2
  -4  -2 -14-25.3393 60.2346   1
   2  -4  14 59.8731 60.1740   2
   2  -4 -14 97.5597 60.4316   1
  -4  -3  -1 85.9106 18.6584   1
   4   3   1 114.549 14.7464   1
  -3   4  -1 87.5778 14.5542   1
   3  -4  -1 58.5512 17.9826   1
   4   3  -1 99.6172 18.9388   1
   4   3   1 118.971 13.0276   2
  -4  -3   1 72.5471 23.2020   1
  -3   4  -1 87.5174 11.9632   1
  -3   4   1 52.5386 18.0575   1
   3  -4  -3 1320.25 42.4237   1
  -4  -3  -3 1670.09 40.1419   1
   4   3   3 2475.65 43.3619   2
  -3   4  -3 1715.13 26.3334   1
  -3   4   3 1530.22 44.5307   1
  -3   4  -3 1585.58 23.5674   1
  -3   4  -5 7530.00 64.7734   1
  -3   4  -5 7557.02 66.9211   1
   4   3   5 6652.71 67.6466   1
   4   3  -5 7840.28 98.8925   1
  -3   4   5 6631.99 95.3000   1
   3  -4   5 7504.46 89.3008   2
   3  -4  -5 5946.44 91.2216   1
  -4  -3   5 8293.44 113.769   1
  -4  -3  -5 5954.29 76.5066   1
   4   3   5 7079.26 90.0677   2
   3  -4   7 1877.02 54.9392   2
  -3   4   7 1804.86 66.4573   1
  -4  -3   7 1792.08 62.7407   1
   4   3   7 1968.06 60.4113   2
   3  -4  -7 2216.44 72.2904   1
  -3   4  -7 1694.55 45.6575   1
  -4  -3  -7 1929.25 56.9120   1
   4   3   7 2275.33 47.7051   1
   4   3  -7 1716.69 61.6852   1
  -3   4  -9 6007.99 99.5048   1
   4   3  -9 6497.46 118.637   1
  -3   4   9 6086.87 120.076   1
   3  -4   9 5968.15 102.132   2
   4   3   9 6892.10 114.915   2
  -4  -3   9 5943.50 115.927   1
  -4  -3  -9 6349.99 114.313   1
   3  -4  -9 6436.79 120.398   1
  -3   4  11 1167.13 70.6013   1
   4   3 -11 950.721 69.8473   1
   3  -4 -11 1012.48 77.3214   1
   4   3  11 993.527 70.3707   2
   3  -4  11 1026.29 62.5563   2
  -3   4 -11 972.798 61.4559   1
  -4  -3  11 907.267 63.9153   2
  -4  -3 -11 1189.51 69.1035   1
  -3   4 -13 2315.77 93.1116   1
   3  -4 -13 2104.34 96.3665   1
   4   3  13 2310.62 97.4073   2
   4   3 -13 2049.07 95.9796   1
   3  -4  13 2093.24 88.1369   2
  -4  -3 -13 2375.26 94.5720   1
  -4  -3  13 2308.48 94.6524   2
  -4   4   0 360.621 17.6197   1
  -4   4   0 302.831 18.2490   1
  -4  -4   0 340.573 27.6316   1
   4   4   0 303.586 20.1717   1
  -4   4   2 1676.56 41.6771   1
   4   4  -2 1656.11 42.5249   1
   4   4   2 1730.24 29.8094   2
  -4  -4  -2 1759.80 40.9098   1
  -4  -4   2 1578.84 50.3576   1
   4   4   2 1625.24 32.9561   1
   4   4   4 177.451 21.3446   2
  -4   4  -4 155.904 11.8590   1
   4   4  -4 131.838 25.3471   1
   4   4   4 165.645 19.7340   1
   4  -4  -4 202.864 31.8707   1
  -4  -4  -4 181.178 24.6797   1
  -4   4   4 157.327 31.1916   1
  -4   4  -4 160.058 13.6131   1
  -4  -4   4 144.467 33.2855   1
  -4  -4  -6 569.294 35.3847   1
   4   4   6 599.484 36.4878   2
  -4   4  -6 576.150 22.8994   1
   4  -4  -6 660.177 47.7349   1
   4   4   6 574.989 28.6404   1
   4  -4   6 618.439 38.1169   2
   4   4  -6 598.801 44.3061   1
  -4   4   6 551.729 45.0411   1
  -4   4  -6 673.463 30.4574   1
  -4  -4   6 616.656 44.2502   1
  -4  -4   8 137.384 41.2610   1
  -4   4   8 28.2225 43.2345   1
   4  -4   8 52.7444 33.3758   2
   4   4  -8 9.39693 39.5693   1
   4   4   8 30.9104 24.1859   1
   4   4   8 97.1916 36.6074   2
  -4   4  -8 88.6424 29.9142   1
  -4  -4  -8 85.4353 36.4630   1
   4  -4  -8 60.1353 43.7711   1
   4  -4  10-22.0886 42.0736   2
   4   4  10-6.10328 47.8747   2
   4  -4 -10-49.7936 52.4565   1
  -4   4  10 25.1515 52.2333   1
  -4  -4 -10-11.9380 43.2688   1
  -4   4 -10 7.29576 39.4196   1
   4   4 -10-12.8023 45.0695   1
  -4  -4  10 26.3751 41.3911   1
  -4  -4  10 3.92449 40.8555   2
  -4   4 -12 152.152 54.4999   1
  -4  -4  12 244.133 53.0933   2
  -4  -4 -12 170.009 58.1475   1
   4  -4  12 184.355 51.9376   2
   4   4 -12 243.896 61.1922   1
   4   4  12 189.294 66.0320   2
   4  -4 -12 102.714 58.0127   1
   4   5   1 1952.07 41.0300   1
   5  -4  -1 2275.18 39.7528   1
   4   5   1 1830.32 24.1402   2
  -5   4  -1 1932.25 22.8582   1
  -4  -5  -1 2078.57 49.5155   1
  -5   4  -1 1718.54 21.8984   1
   4   5  -1 1955.82 46.0922   1
  -4  -5   1 1860.72 54.4882   1
  -5   4   1 2083.67 40.9671   1
   4   5   3 291.173 23.9679   1
   5  -4  -3 314.988 28.1764   1
   4   5  -3 306.708 29.9581   1
  -5   4   3 348.152 32.0973   1
   4   5   3 373.276 21.7876   2
  -4  -5   3 310.543 32.9654   1
  -4  -5  -3 310.792 29.2777   1
  -5   4  -5 4382.22 43.0308   1
  -4  -5   5 4341.66 86.4495   1
  -5   4   5 4468.72 84.6386   1
  -5   4  -5 4635.80 43.7138   1
   4   5   5 4852.22 65.2244   1
   4   5  -5 4343.20 74.6734   1
  -4  -5  -5 4971.06 76.1831   1
   4   5   5 5367.44 74.9638   2
   5  -4  -5 5250.08 88.5452   1
  -4  -5   7 1327.42 57.2814   1
   4   5   7 1596.63 53.9649   2
  -4  -5  -7 1704.52 56.4222   1
  -5   4   7 1727.73 68.7518   1
  -5   4  -7 1442.68 38.7863   1
   4   5  -7 1633.54 65.3361   1
  -4  -5   7 1495.09 42.3762   2
   4   5   7 1768.01 51.3633   1
   5  -4   7 1583.48 56.7874   2
   5  -4  -7 2094.28 77.4097   1
  -4  -5   9 2095.73 59.1648   2
   4   5   9 2182.01 72.0810   2
  -5   4  -9 2155.10 61.0036   1
  -5   4   9 2226.28 91.0769   1
   5  -4   9 1927.64 70.2263   2
   4   5  -9 2087.17 76.6333   1
  -4  -5  -9 1904.10 65.1658   1
  -4  -5   9 2099.30 72.6500   1
   4   5  11 856.451 68.2903   2
   4   5 -11 594.932 60.4168   1
  -4  -5  11 551.398 55.1353   2
   5  -4  11 520.332 56.7059   2
  -5   4  11 807.312 72.3772   1
  -4  -5 -11 718.718 60.1971   1
  -5   4 -11 616.607 53.0533   1
   5  -4 -11 598.629 70.2687   1
  -5   4 -13 376.387 59.0479   1
  -4  -5 -13 361.168 58.9347   1
  -4  -5  13 438.469 67.2611   2
   5  -4 -13 327.231 66.6259   1
   4   5  13 480.364 79.3535   2
   5  -4  13 250.697 62.9364   2
   4   5 -13 217.813 66.2294   1
   3   5   0 14752.0 104.433   1
  -3  -5   0 15220.0 115.387   1
  -5   3   0 15087.1 77.8003   1
  -5   3   2 23979.3 126.913   1
  -3  -5   2 24256.6 172.969   1
  -3  -5   2 24943.9 73.1735   2
   5  -3  -2 26450.2 130.576   1
   3   5  -2 25498.3 141.568   1
   3   5   2 24014.3 127.610   1
  -3  -5  -2 25998.9 142.274   1
  -5   3   4 6091.52 93.9235   1
  -3  -5   4 5870.38 54.5112   2
   3   5   4 6121.35 73.0487   1
  -3  -5  -4 6698.02 87.5142   1
   3   5  -4 6521.84 88.2618   1
  -3  -5   4 5369.06 85.7346   1
   5  -3  -4 7421.19 92.9466   1
  -5   3  -6 10402.7 78.0783   1
   3   5   6 10637.4 104.258   1
  -5   3   6 11112.5 141.741   1
  -3  -5   6 10064.8 120.801   1
  -5   3  -6 10476.1 77.1076   1
   5  -3   6 10874.8 116.391   2
  -3  -5  -6 11426.5 121.520   1
  -3  -5   6 10224.7 89.2885   2
   3   5  -6 9954.77 114.581   1
   5  -3  -6 11533.8 130.153   1
   3   5  -8 1120.66 57.6463   1
  -5   3  -8 998.567 40.5480   1
   3   5   8 1244.22 48.5391   1
   3   5   8 1134.24 53.0850   2
  -5   3   8 1123.61 64.5075   1
   5  -3  -8 1335.13 60.9827   1
  -3  -5  -8 1026.75 53.8490   1
  -3  -5   8 1072.75 41.6919   2
  -3  -5   8 1107.14 52.7535   1
   5  -3   8 1058.70 51.2056   2
  -3  -5  10 2926.51 77.7850   2
   3   5  10 2575.08 81.6136   2
  -3  -5 -10 3011.29 88.0461   1
  -5   3  10 2987.67 105.355   1
   5  -3 -10 3277.94 100.744   1
  -5   3 -10 2816.50 73.8903   1
   5  -3  10 2558.49 79.6912   2
   3   5 -10 2598.29 85.6716   1
   5  -3  12 185.366 53.8083   2
  -3  -5  12 149.623 51.3004   2
   3   5  12 293.155 65.3959   2
  -3  -5 -12 169.221 55.6736   1
  -5   3 -12 281.843 50.7860   1
   5  -3 -12 276.007 60.8345   1
   3   5 -12 165.821 56.9685   1
  -5   2   1 12058.9 88.3207   1
  -2  -5  -1 13081.9 103.496   1
   2   5   1 12565.2 99.2660   1
   5  -2  -1 13175.3 79.4522   1
  -2  -5   1 11964.9 114.026   1
  -5   2   1 13108.0 88.1329   1
   2   5  -1 11354.1 90.5903   1
  -2  -5   3 11760.5 116.915   1
  -5   2   3 12191.5 108.239   1
   2   5  -3 11696.0 98.4485   1
   2   5   3 11939.4 97.7801   1
  -2  -5   3 11885.2 69.5980   2
  -5   2  -5 2289.17 30.9781   1
   2   5  -5 2412.80 58.7948   1
  -2  -5  -5 3173.08 71.6065   1
  -5   2   5 2413.07 64.8438   1
   5  -2  -5 2943.24 69.7167   1
  -2  -5   5 2217.04 57.5615   1
   5  -2   5 2455.74 54.2032   2
  -2  -5   5 2391.45 45.5131   2
   2   5   5 2512.65 55.9963   1
   5  -2  -7 5177.04 102.793   1
  -5   2  -7 4377.95 62.7070   1
  -2  -5   7 4464.74 71.2603   2
   5  -2   7 4638.01 83.6300   2
   2   5   7 5311.46 88.6182   1
  -2  -5  -7 4700.54 88.4139   1
   2   5  -7 4177.89 78.0847   1
  -5   2   7 4669.84 102.242   1
  -2  -5   7 5117.02 89.0362   1
  -2  -5   9 529.922 41.1713   2
  -5   2   9 459.884 54.8278   1
  -2  -5  -9 365.843 48.5554   1
   5  -2  -9 467.058 59.0529   1
  -5   2  -9 511.273 40.7385   1
   2   5  -9 440.182 48.9827   1
   2   5   9 612.233 47.0985   1
   5  -2   9 429.347 45.7646   2
  -2  -5   9 441.485 38.4885   1
  -5   2  11 884.004 74.1784   1
  -2  -5 -11 873.654 67.4268   1
   5  -2 -11 893.003 67.3836   1
   2   5 -11 869.662 67.8416   1
  -5   2 -11 933.702 57.6548   1
   5  -2  11 836.882 61.9205   2
   2   5  11 1024.93 70.0350   2
  -2  -5  11 979.867 62.1938   2
   5  -2  13 239.763 64.2617   2
   2   5  13 270.679 69.7726   2
   5  -2 -13 212.804 65.7056   1
   2   5 -13 262.266 65.1744   1
  -5   2 -13 297.675 60.2336   1
  -2  -5  13 256.009 55.9952   2
  -2  -5 -13 411.577 64.6905   1
  -5   1   0 78.9311 11.4693   1
  -1  -5   0 76.7816 23.5000   1
  -5   1   0 71.8727 15.2559   1
   1   5   0 63.4744 18.3831   1
  -1  -5  -2 10298.2 95.0101   1
   1   5  -2 8599.71 79.1982   1
   1   5   2 8849.29 83.6799   1
   5  -1  -2 10734.5 94.0377   1
  -1  -5   2 8669.56 89.5438   1
  -5   1   2 9182.03 90.6158   1
  -5   1  -4 20.3730 7.73331   1
  -5   1  -4 36.9608 8.94028   1
  -5   1   4 30.3415 28.0379   1
   1   5   4 26.6768 24.2462   1
  -1  -5   4 29.5629 23.0878   1
   5  -1  -4 34.6334 26.3183   1
   5  -1   4 10.2031 20.6896   2
  -1  -5  -4-14.0907 27.1921   1
  -1  -5   4 22.3904 14.9806   2
   1   5  -4 7.05654 20.4792   1
   5  -1   6 4072.24 72.6422   2
  -5   1   6 4678.73 91.4021   1
  -5   1  -6 4138.65 53.9890   1
   5  -1  -6 4653.27 87.4148   1
  -1  -5   6 3961.57 63.1018   1
  -1  -5   6 4141.83 62.1073   2
  -1  -5  -6 4279.06 75.6710   1
  -5   1  -6 4234.81 53.9891   1
   1   5  -6 3957.72 70.4127   1
   1   5   6 4731.78 81.2660   1
  -1  -5   8 28.7629 26.3761   1
   1   5  -8 27.0694 36.2704   1
  -1  -5  -8 18.0182 44.0930   1
  -1  -5   8 61.4009 30.6646   2
   5  -1  -8-10.5567 40.0238   1
  -5   1  -8 25.7128 27.5288   1
   1   5   8 52.4747 33.4438   1
   5  -1   8 3.42934 36.1894   2
  -5   1   8 63.2538 45.3553   1
   5  -1  10 844.155 59.1034   2
  -5   1 -10 1074.01 55.1823   1
  -1  -5 -10 1029.77 63.1310   1
   5  -1 -10 1068.76 72.0156   1
  -1  -5  10 757.078 47.9988   2
  -5   1  10 917.295 65.9633   1
   1   5 -10 913.280 61.1634   1
   1   5  12-61.7967 59.6511   2
   5  -1  12 30.8724 54.9261   2
  -1  -5  12-23.3854 45.7325   2
   1   5 -12 69.6028 53.5635   1
  -5   1 -12-63.5310 50.6649   1
  -1  -5 -12 12.8303 54.6119   1
   5  -1 -12-1.26354 59.4293   1
  -5   1 -14 91.5310 58.2968   1
   5  -1  14 250.874 67.3491   2
  -1  -5 -14 118.202 60.8470   1
   5  -1 -14 30.0136 58.8930   1
  -5   1  14 91.5646 66.9877   2
   1   5  14 146.657 70.2985   2
  -1  -5  14 170.234 62.8069   2
   1   5 -14 47.2889 62.8826   1
  -5   0  -1 237.642 11.3344   1
  -5   0   1 129.142 16.0688   1
  -5   0  -1 220.200 10.6095   1
   0   5  -1 153.307 20.2230   1
   5   0  -1 162.777 16.6519   1
   0  -5  -1 170.474 24.4929   1
  -5   0   1 166.223 23.4879   1
   0   5   1 166.075 23.0231   1
   0  -5   1 124.850 22.6960   1
   5   0  -3 1777.85 51.0235   1
   0   5  -3 1390.26 35.6704   1
   0  -5  -3 1213.27 44.0844   1
   0  -5   3 1338.25 30.7837   2
   0  -5   3 1488.49 37.4016   1
   0   5   3 1480.59 42.5673   1
   0   5  -5 8046.39 86.6749   1
  -5   0   5 7365.87 104.666   1
  -5   0  -5 7095.82 60.1175   1
   0  -5   5 7391.58 67.5189   1
   5   0  -5 6475.51 91.8915   1
  -5   0  -5 6679.82 60.3790   1
   0  -5  -5 5837.36 87.7723   1
   5   0   5 7248.20 89.2090   2
   0   5   5 6421.15 87.3730   1
   0  -5   5 7799.97 83.5372   2
   0   5   7 1846.50 57.7816   1
  -5   0  -7 1812.77 49.7845   1
   5   0   7 1749.79 58.5630   2
   0  -5   7 1678.91 42.7279   1
  -5   0   7 1822.81 69.1007   1
   5   0  -7 1797.03 63.1177   1
   0  -5   7 1637.24 47.0377   2
   0  -5  -7 1875.65 66.0604   1
   0   5  -7 1564.75 51.4887   1
   0   5   9 6017.18 104.633   1
   5   0   9 6691.03 115.495   2
  -5   0   9 6013.14 117.929   1
   5   0  -9 6647.34 122.918   1
   0  -5   9 5718.44 91.5775   2
  -5   0  -9 6871.07 103.840   1
   0  -5  -9 6153.26 114.235   1
   0   5  -9 5595.47 101.700   1
   0   5 -11 888.501 65.9426   1
  -5   0  11 993.407 69.1866   1
   5   0  11 961.520 67.0215   2
   5   0 -11 1003.86 70.2711   1
   0  -5  11 940.648 56.4796   2
   0  -5 -11 933.697 68.3158   1
  -5   0 -11 954.959 64.3971   1
  -5   0 -13 2462.65 92.0411   1
   5   0 -13 2559.00 106.096   1
   0  -5  13 2263.03 90.5401   2
   0   5 -13 2281.40 101.384   1
   5   0  13 2069.44 96.1669   2
   0   5  13 2304.31 106.188   2
   0  -5 -13 2284.99 98.9723   1
  -1   5   0 681.191 26.0195   1
   5   1   0 724.101 18.8311   1
   1  -5   0 756.187 28.9197   1
  -5  -1   0 742.846 25.7720   1
  -1   5  -2 6373.61 68.9059   1
  -1   5   2 6450.27 72.2918   1
  -5  -1  -2 6630.07 43.5970   1
   5   1  -2 6219.00 67.2570   1
  -5  -1   2 6134.40 79.5972   1
   1  -5  -2 6791.99 78.6701   1
  -1   5  -2 5529.54 57.5584   1
   1  -5   2 5383.36 56.7553   1
  -5  -1  -2 6126.87 43.2412   1
  -1   5   4 75.0605 28.0628   1
  -5  -1  -4 81.3156 13.4253   1
   1  -5  -4 95.6425 34.0113   1
  -1   5  -4 55.3781 20.1098   1
   5   1  -4 19.0455 25.3375   1
  -5  -1   4 74.2911 31.9808   1
   5   1   4 60.5428 20.2872   2
   1  -5   4 72.0115 19.0857   2
   1  -5   4 55.6435 13.0623   1
  -5  -1  -4 91.7190 15.0164   1
   1  -5   6 229.355 17.4391   1
  -5  -1  -6 298.448 28.6081   1
  -1   5  -6 212.877 30.5455   1
   5   1  -6 254.570 36.2793   1
  -5  -1   6 263.875 35.8208   1
   5   1   6 276.114 30.3150   2
   1  -5  -6 323.308 41.2607   1
   1  -5   6 203.734 26.6555   2
  -1   5   6 281.099 35.9709   1
  -1   5  -8 320.293 37.9627   1
  -1   5   8 327.494 42.9530   1
   1  -5   8 251.875 34.0213   2
   1  -5  -8 225.458 43.5128   1
   5   1   8 306.721 41.9798   2
  -5  -1   8 282.319 47.6261   1
  -5  -1  -8 335.308 37.6711   1
   5   1  -8 317.217 46.5792   1
   1  -5  10 52.1407 39.3259   2
   5   1  10-21.5214 47.8895   2
  -1   5 -10-2.97522 42.6785   1
  -1   5  10-13.7776 34.3264   1
   5   1 -10-9.00805 47.8622   1
   1  -5 -10 15.1977 46.0311   1
  -5  -1  10-0.95807 44.7404   1
  -5  -1 -10 11.6384 40.4719   1
  -1   5 -12 235.105 56.5755   1
   5   1  12 144.266 58.0225   2
   5   1 -12 111.383 56.8557   1
  -5  -1 -12 213.217 57.0949   1
   1  -5 -12 167.039 56.8750   1
   1  -5  12 140.161 52.4054   2
  -1   5 -14 212.890 65.4362   1
  -5  -1  14 211.908 66.4269   2
  -5  -1 -14 118.181 64.4224   1
   1  -5  14 102.902 60.5944   2
  -1   5  14 171.408 72.3790   2
   1  -5 -14 259.645 66.1292   1
   5   1 -14 138.523 69.3750   1
   5   1  14 115.831 68.0821   2
  -5  -2  -1 12891.9 82.8910   1
   5   2   1 11992.1 61.0748   1
  -5  -2  -1 12668.7 78.7786   1
   5   2  -1 11993.3 84.3086   1
  -5  -2   1 12415.8 107.920   1
  -2   5   1 12213.4 92.7596   1
   2  -5   1 12276.3 77.6060   1
  -2   5  -1 12519.2 89.0371   1
  -2   5  -1 11622.2 78.5192   1
  -5  -2  -3 160.148 17.0163   1
  -5  -2   3 120.212 30.1869   1
  -2   5  -3 105.335 16.8431   1
   5   2   3 126.113 18.2772   2
  -2   5  -3 158.008 18.5461   1
   5   2  -3 102.217 20.8254   1
   2  -5  -3 183.238 28.4583   1
  -5  -2  -3 144.453 15.9764   1
   5   2  -5 12220.1 121.312   1
   2  -5  -5 12644.3 124.229   1
  -2   5  -5 11685.5 94.1414   1
  -5  -2   5 11729.8 132.261   1
  -5  -2  -5 12604.2 98.5868   1
   5   2   5 12339.6 111.969   2
   2  -5   5 12303.8 110.208   2
  -2   5  -7 120.768 27.9835   1
   5   2  -7 104.158 36.2419   1
  -5  -2  -7 153.357 29.7469   1
   2  -5   7 82.6893 27.2860   2
   2  -5  -7 200.948 41.2760   1
  -2   5   7 82.0378 37.4013   1
  -5  -2   7 159.743 43.1595   1
   5   2   7 148.037 32.3782   2
  -5  -2   9 3425.09 94.7868   1
   5   2  -9 3181.66 93.8909   1
   2  -5  -9 3526.04 93.5289   1
   5   2   9 3513.63 84.6348   2
   2  -5   9 3028.73 75.6016   2
  -2   5  -9 3255.51 79.8160   1
  -2   5   9 3560.90 94.1117   1
  -5  -2  -9 3419.75 80.9814   1
  -2   5 -11-7.94747 47.3796   1
  -5  -2 -11 95.8633 46.6140   1
   5   2  11 36.2291 50.2351   2
   2  -5  11 92.3757 43.6423   2
  -2   5  11 34.6166 43.5757   1
  -5  -2  11 159.377 49.5164   1
   5   2 -11 113.455 52.3398   1
   2  -5 -11 135.566 52.2212   1
  -5  -2 -13 668.882 71.2170   1
  -5  -2  13 552.376 76.0181   2
   2  -5 -13 576.948 70.2859   1
   5   2 -13 541.660 71.9793   1
  -2   5 -13 533.679 71.0042   1
   5   2  13 612.605 70.4250   2
   2  -5  13 474.535 61.6368   2
  -3   5   0 21837.7 111.740   1
   3  -5   0 22178.0 107.890   1
  -5  -3   0 21121.6 127.107   1
  -3   5   0 20235.1 109.275   1
   5   3   0 20924.4 112.062   1
  -3   5  -2 4992.47 46.6483   1
  -3   5   2 5393.17 73.8165   1
  -3   5  -2 5201.32 51.5060   1
   5   3  -2 4631.78 63.1407   1
   3  -5  -2 5969.34 79.1339   1
   5   3   2 5149.92 52.9571   2
  -5  -3   2 4796.99 75.4959   1
   5   3   2 5407.74 50.1351   1
  -5  -3  -2 5740.24 65.9632   1
  -5  -3   4 8700.54 114.703   1
   5   3  -4 9293.39 104.367   1
  -3   5  -4 8549.70 71.3247   1
  -5  -3  -4 10100.3 86.6793   1
   5   3   4 9358.81 65.2484   1
   5   3   4 9738.64 90.3729   2
   3  -5  -4 11078.6 115.992   1
  -3   5  -4 8313.52 66.4390   1
  -3   5   4 9557.87 113.710   1
  -5  -3   6 1049.28 54.6857   1
   5   3   6 1164.31 30.8138   1
  -5  -3  -6 1115.25 39.4464   1
   3  -5  -6 1187.77 56.2218   1
   5   3   6 1051.59 42.4253   2
   3  -5   6 1132.51 46.0029   2
   5   3  -6 1107.60 50.6722   1
  -3   5   6 1229.01 55.1762   1
  -3   5  -6 929.116 34.3519   1
  -3   5  -8 2362.96 62.4159   1
   5   3   8 2720.12 73.4984   2
   3  -5  -8 2661.44 79.8475   1
  -5  -3   8 2534.63 83.5030   1
  -5  -3  -8 2675.15 68.7726   1
   3  -5   8 2286.14 64.3300   2
   5   3  -8 2666.01 79.3857   1
   5   3 -10 14.2290 49.0393   1
  -3   5  10 137.226 51.3303   1
  -5  -3 -10 64.2886 43.0931   1
   3  -5  10-2.49758 39.8019   2
   5   3  10 54.5527 47.0211   2
   3  -5 -10-25.9759 47.5167   1
  -5  -3  10 135.255 48.0412   1
  -3   5 -10-0.22795 41.4754   1
  -3   5 -12 727.038 63.6178   1
   3  -5 -12 506.459 64.6392   1
   5   3  12 716.317 69.0164   2
  -5  -3 -12 871.424 69.3902   1
   3  -5  12 714.971 60.4745   2
   5   3 -12 704.593 66.4284   1
  -5  -3  12 713.858 66.1392   2
   4  -5  -1 4224.26 53.7127   1
  -4   5  -1 3627.03 40.7062   1
  -5  -4   1 3851.23 67.0317   1
  -5  -4  -1 4226.98 61.1460   1
   5   4   1 3819.02 49.7787   1
  -4   5   1 3585.45 53.0839   1
  -4   5  -1 3813.09 43.1071   1
   5   4  -1 3690.69 56.6107   1
   5   4  -3 13899.8 115.883   1
  -5  -4  -3 15283.3 111.469   1
  -4   5  -3 14278.3 70.4279   1
   5   4   3 14453.3 92.4289   1
  -4   5  -3 14015.1 73.6850   1
  -5  -4   3 12642.3 129.393   1
  -4   5   3 14594.0 124.726   1
   4  -5  -3 15285.6 124.786   1
   5   4   3 14152.2 95.6096   2
  -4   5   5 97.9642 36.0859   1
  -5  -4  -5 53.3834 23.6808   1
  -4   5  -5 55.8223 17.6797   1
  -4   5  -5 82.7976 17.0332   1
   5   4  -5 68.3454 32.0071   1
   4  -5  -5 83.3562 33.1906   1
  -5  -4   5 95.5609 36.6056   1
   5   4   5 92.9600 19.9487   1
   5   4   5 100.612 28.7811   2
   5   4   7 8172.82 109.933   2
   4  -5  -7 7995.94 122.077   1
  -5  -4  -7 7457.42 96.0680   1
  -4   5   7 7730.64 129.095   1
  -4   5  -7 7601.76 90.2461   1
   5   4  -7 7582.12 115.947   1
   4  -5   7 7627.72 106.193   2
   5   4   7 7761.92 78.7077   1
   5   4  -9 158.201 49.1056   1
  -4   5  -9 190.154 38.1849   1
  -5  -4   9 155.345 46.8501   1
  -4   5   9 180.498 52.7455   1
  -5  -4  -9 264.442 43.9879   1
   4  -5   9 114.261 40.0652   2
   5   4   9 167.635 46.6489   2
   4  -5  -9 251.636 50.8005   1
  -4   5 -11 1496.01 70.5060   1
   5   4 -11 1653.90 82.4916   1
  -5  -4  11 1803.42 74.8779   2
  -4   5  11 1864.14 86.4869   1
   4  -5  11 1597.37 71.9683   2
   5   4  11 1606.28 76.9342   2
   4  -5 -11 1786.39 83.2446   1
  -5  -4 -11 1823.09 79.2008   1
   4  -5  13-33.7882 57.0508   2
   4  -5 -13-102.845 60.8130   1
  -4   5 -13-35.0078 57.8508   1
  -5  -4  13 10.0751 56.4120   2
   5   4  13-22.7844 64.1328   2
   5   4 -13 6.93279 56.4251   1
  -5  -4 -13 39.6080 56.8032   1
   5   5   0 4705.23 65.2625   1
  -5  -5   0 4448.83 74.3337   1
   5   5   2 46835.7 166.204   2
   5   5   2 48422.6 188.924   1
  -5   5  -2 48584.8 118.458   1
   5  -5  -2 47033.6 208.613   1
  -5   5  -2 48880.5 94.5673   1
   5   5  -2 48681.2 209.670   1
  -5  -5  -2 47643.2 225.978   1
  -5  -5   2 48625.1 245.876   1
  -5   5  -4 9799.45 49.7309   1
  -5  -5  -4 8003.71 94.7616   1
  -5   5  -4 10066.7 51.5041   1
  -5   5   4 9308.16 117.069   1
   5  -5  -4 9421.62 112.548   1
   5   5   4 9147.85 89.5772   1
   5   5   4 9025.69 89.9833   2
   5   5  -4 8363.36 101.789   1
  -5  -5   4 8071.16 117.955   1
   5   5  -6 6449.70 105.515   1
   5  -5  -6 7250.68 115.472   1
  -5  -5   6 6206.75 116.050   1
  -5   5   6 6653.91 113.500   1
   5   5   6 6703.87 79.1827   1
   5   5   6 7040.35 97.8175   2
  -5   5  -6 7244.26 69.9742   1
  -5   5  -6 7277.45 67.5496   1
  -5  -5  -6 6165.61 92.3273   1
   5  -5   8 8178.63 121.058   2
   5   5  -8 7579.75 126.512   1
  -5   5   8 8549.80 153.022   1
  -5  -5  -8 7823.26 112.656   1
   5   5   8 8670.67 122.731   2
   5  -5  -8 8344.59 133.348   1
  -5  -5   8 6892.73 117.526   1
  -5   5  -8 7756.99 95.1553   1
  -5   5  10 943.377 76.9970   1
  -5   5 -10 1132.69 58.7388   1
   5  -5  10 1185.66 64.8672   2
  -5  -5  10 942.104 68.0553   1
   5  -5 -10 934.099 66.9659   1
   5   5  10 1071.42 66.3486   2
   5   5 -10 785.739 66.8139   1
  -5  -5 -10 676.411 51.1167   1
  -5  -5  10 895.673 55.0979   2
   5   5 -12 2578.55 103.505   1
  -5  -5 -12 2410.86 85.2045   1
  -5   5 -12 2873.42 93.2659   1
   5  -5 -12 2912.48 104.443   1
  -5   5  12 3124.24 115.864   1
   5  -5  12 2725.59 91.1168   2
   5   5  12 2658.92 99.7826   2
  -5  -5  12 3015.81 94.1936   2
  -5  -6  -1 1732.62 47.8292   1
  -6   5  -1 1532.58 25.6189   1
  -6   5  -1 1508.82 25.4619   1
   5   6   1 1549.62 24.4991   2
  -5  -6   1 1588.95 54.8828   1
  -6   5   1 1590.09 39.4468   1
   5   6   1 1599.66 40.2780   1
   5   6  -1 1551.71 42.3117   1
   5   6  -3 218.365 31.2956   1
   5   6   3 174.010 24.0000   1
   5   6   3 247.692 20.7339   2
  -5  -6  -3 193.873 26.8273   1
  -5  -6   3 128.054 34.2634   1
   6  -5  -3 171.805 26.7822   1
  -6   5   3 164.553 32.3730   1
   5   6   5 2517.92 57.1012   2
  -5  -6  -5 2569.26 65.0607   1
   6  -5  -5 2341.40 66.1194   1
  -6   5   5 2166.73 68.7025   1
   5   6   5 2338.92 51.8278   1
   5   6  -5 2250.08 62.0973   1
  -5  -6   5 1947.75 69.2906   1
  -6   5  -5 2182.72 30.4321   1
  -6   5  -5 2090.75 28.8402   1
   6  -5  -7 119.350 40.8769   1
  -6   5  -7 50.8474 23.5324   1
  -5  -6  -7 77.1881 35.3181   1
   5   6  -7 39.2165 39.0953   1
   5   6   7-19.7405 33.9882   2
  -5  -6   7 16.7733 38.1754   1
  -6   5   7-4.79374 46.6221   1
  -5  -6   7 20.2015 24.1624   2
  -5  -6  -9 826.791 56.8344   1
  -5  -6   9 895.467 63.4669   1
   6  -5  -9 775.447 62.2357   1
  -6   5   9 947.895 75.5538   1
  -5  -6   9 738.341 44.2213   2
   6  -5   9 863.643 61.0738   2
   5   6  -9 784.275 62.2511   1
   5   6   9 949.878 62.1768   2
  -6   5  -9 789.175 45.3234   1
  -5  -6  11 22.8635 45.0821   2
  -5  -6 -11 182.026 57.7747   1
   6  -5 -11 187.476 57.0269   1
   5   6 -11 91.7970 56.7295   1
   6  -5  11 173.217 55.6883   2
  -6   5  11-24.3058 63.1991   1
   5   6  11 107.558 55.6867   2
  -6   5 -11 120.046 43.2857   1
   5   6 -13 161.293 66.8593   1
  -5  -6  13 239.855 62.1144   2
   5   6  13 195.082 67.1668   2
   6  -5  13 103.675 62.7539   2
   6  -5 -13 135.453 64.3792   1
  -6   5 -13 128.799 49.8617   1
  -5  -6 -13 207.748 73.5976   1
  -6   4   0 1596.09 30.7508   1
   4   6   0 1566.97 41.3715   1
  -6   4   0 1480.20 30.0967   1
  -4  -6   2 402.772 10.7786   2
  -4  -6  -2 486.194 34.4399   1
   4   6   2 449.273 19.3126   2
   6  -4  -2 511.029 27.8551   1
  -4  -6   2 420.727 37.7026   1
   4   6  -2 366.936 29.0671   1
  -6   4   2 470.013 35.3564   1
   4   6   2 442.080 30.6402   1
  -6   4   4 471.718 41.4588   1
   4   6   4 596.752 35.1878   1
   4   6   4 639.275 30.6295   2
  -4  -6  -4 562.721 38.9309   1
   6  -4  -4 609.239 39.5616   1
   4   6  -4 572.770 39.2512   1
  -4  -6   4 530.023 20.4410   2
  -4  -6   4 473.993 39.4406   1
  -4  -6   6-5.07690 38.6126   1
  -6   4  -6 19.6049 17.1318   1
   4   6   6 16.7986 29.6064   2
   4   6  -6 11.7592 31.4060   1
  -6   4  -6-7.85513 14.1103   1
   6  -4  -6 36.4882 38.0877   1
  -4  -6   6 28.9358 19.3550   2
  -4  -6  -6 44.4492 38.3155   1
   4   6   6 44.9851 26.7342   1
  -6   4   6 54.8397 39.4677   1
   4   6   8 208.713 34.3703   1
   4   6   8 218.701 39.4790   2
  -4  -6  -8 188.818 43.4599   1
   4   6  -8 175.172 47.1107   1
  -4  -6   8 146.594 35.4736   1
   6  -4   8 151.489 42.9749   2
  -4  -6   8 105.334 28.7048   2
  -6   4  -8 178.817 29.6514   1
  -6   4   8 155.612 49.6272   1
   6  -4  -8 235.835 49.6761   1
   4   6  10-5.77568 47.4300   2
   4   6 -10-25.9913 50.9336   1
   6  -4 -10-6.51963 58.9348   1
  -6   4  10-9.20580 60.0776   1
  -6   4 -10-63.5984 38.9270   1
   6  -4  10-16.2460 46.8508   2
  -4  -6  10 56.3500 40.0103   2
  -4  -6 -10-28.3342 48.5749   1
  -6   4 -12-2.00979 44.0859   1
  -4  -6 -12 38.3631 56.1570   1
   6  -4 -12 24.4485 60.0038   1
   6  -4  12 26.4868 53.6409   2
   4   6 -12 18.1726 57.3774   1
   4   6  12-44.2045 60.1133   2
  -4  -6  12-9.14015 50.5397   2
  -6   4  12 44.6406 66.2201   1
  -6   3   1 5823.24 68.2327   1
  -3  -6  -1 5964.60 81.3868   1
   3   6  -1 5363.15 69.3517   1
   3   6   1 5369.38 71.3001   1
  -3  -6   1 5126.52 86.0934   1
   6  -3  -1 5398.29 52.7738   1
  -3  -6   3 6099.28 92.3656   1
  -3  -6  -3 5212.62 78.3455   1
  -3  -6   3 6059.47 48.4464   2
   6  -3  -3 5139.97 74.2493   1
  -6   3   3 6093.22 82.1019   1
   3   6  -3 5776.68 77.7355   1
   3   6   3 6075.14 76.2932   1
  -3  -6  -5 9265.98 112.798   1
  -6   3  -5 9185.56 48.6559   1
   6  -3  -5 9763.34 115.796   1
   3   6  -5 9399.23 114.992   1
  -6   3   5 9218.34 130.318   1
  -3  -6   5 9406.96 81.6418   2
  -3  -6   5 8816.24 110.569   1
  -6   3  -5 9264.97 48.6738   1
   3   6   5 9431.67 101.586   1
  -6   3  -7 70.7431 22.3287   1
   6  -3   7 109.398 35.6583   2
   6  -3  -7 40.1876 37.4519   1
   3   6  -7 25.7675 35.0152   1
  -3  -6   7 99.2065 25.5892   2
   3   6   7 71.9324 28.3950   1
  -3  -6   7 52.2742 31.5096   1
  -3  -6  -7 71.5962 39.4367   1
  -6   3   7 50.4161 45.6156   1
  -3  -6  -9 8025.33 128.854   1
  -3  -6   9 8643.95 111.553   2
  -6   3   9 9119.10 160.240   1
   6  -3  -9 9313.78 148.070   1
  -3  -6   9 7835.10 121.784   1
   3   6   9 8508.34 131.531   2
   3   6  -9 8210.85 135.231   1
   6  -3   9 9081.03 135.291   2
  -6   3  -9 8408.58 107.364   1
  -3  -6 -11 53.2614 50.2338   1
  -6   3 -11 27.0361 40.5344   1
  -3  -6  11 79.6072 42.9720   2
   3   6 -11 13.5228 51.3980   1
   6  -3  11 28.4300 50.9191   2
   3   6  11 7.98678 51.3280   2
   6  -3 -11 101.572 57.5030   1
  -6   3  11-37.0386 61.2050   1
   3   6  13 2519.23 114.866   2
  -3  -6 -13 2146.97 95.4026   1
   3   6 -13 2048.34 96.9665   1
  -3  -6  13 2179.49 82.6800   2
  -6   3 -13 2321.91 91.8008   1
   6  -3  13 2324.15 96.7847   2
   6  -3 -13 2665.16 110.430   1
  -2  -6   0 7473.35 86.0709   1
  -6   2   0 7288.97 52.4233   1
   2   6   0 7396.44 80.7161   1
   2   6   2 8383.96 89.8360   1
   2   6  -2 8182.64 84.8293   1
   6  -2  -2 9785.73 89.2217   1
  -2  -6   2 7671.97 94.1720   1
  -2  -6  -2 9807.92 103.432   1
  -6   2   2 8413.77 91.4428   1
  -2  -6   4 3840.13 68.6798   1
  -2  -6  -4 5223.83 84.0776   1
  -2  -6   4 4551.93 53.4110   2
   2   6   4 5066.65 75.4583   1
   6  -2  -4 5314.05 83.0009   1
   2   6  -4 4303.95 66.3044   1
  -6   2   4 4059.79 71.1588   1
  -6   2  -6 2199.95 37.5581   1
  -2  -6  -6 2859.90 71.5925   1
   6  -2  -6 2808.36 76.9208   1
  -2  -6   6 2217.19 58.4333   1
   2   6  -6 2180.27 61.2997   1
  -2  -6   6 2121.60 47.3214   2
   2   6   6 2571.27 63.8742   1
  -6   2  -6 2750.61 42.3317   1
  -6   2   6 2608.41 77.2437   1
   6  -2   6 2438.79 63.1379   2
  -2  -6  -8 2562.00 74.9079   1
  -6   2   8 2445.51 84.6226   1
   6  -2   8 2489.97 72.3753   2
   2   6  -8 2452.39 71.8310   1
  -6   2  -8 2627.24 54.8232   1
  -2  -6   8 2535.12 65.3457   1
   2   6   8 2728.05 73.6860   1
  -2  -6   8 2410.09 56.4566   2
  -2  -6 -10 173.165 42.8872   1
   2   6 -10 188.445 51.2081   1
  -6   2 -10 127.037 37.4059   1
   2   6  10 171.806 48.6619   2
  -2  -6  10 234.229 40.7346   2
   6  -2  10 148.459 46.6793   2
   6  -2 -10 244.710 58.5405   1
  -6   2  10 234.068 59.4428   1
   2   6 -12 855.353 73.4403   1
  -6   2  12 965.803 80.7922   1
  -2  -6  12 1005.09 63.6208   2
   6  -2 -12 860.441 69.5952   1
   6  -2  12 850.471 66.3149   2
   2   6  12 1104.00 75.8783   2
  -2  -6 -12 779.308 62.3048   1
  -6   2 -12 922.731 64.0967   1
   1   6   1 5.66265 19.2849   1
  -6   1   1 9.68593 20.8587   1
  -1  -6  -1-3.77117 25.2494   1
   1   6  -1 23.0106 20.5793   1
  -1  -6   1-9.74406 25.7583   1
   6  -1  -1 9.95340 15.4036   1
   1   6  -3 4135.72 61.4232   1
  -1  -6   3 4070.82 69.1470   1
  -6   1   3 4331.89 79.5748   1
   6  -1  -3 4766.16 68.9840   1
  -1  -6  -3 4880.09 80.2392   1
   1   6   3 4471.74 71.5180   1
  -1  -6   3 4602.42 51.5825   2
   1   6   5 2435.29 61.8859   1
   6  -1   5 2250.66 54.7290   2
  -6   1  -5 2079.91 29.9675   1
   1   6  -5 2026.45 51.8317   1
  -1  -6   5 2283.87 48.9712   2
  -6   1  -5 2199.44 31.0641   1
  -1  -6  -5 2321.90 59.9336   1
   6  -1  -5 2526.48 65.8135   1
  -6   1   5 2105.60 59.9118   1
  -1  -6   5 2045.36 50.9261   1
   1   6  -7 5064.09 88.7429   1
  -1  -6   7 4847.97 77.2233   1
  -1  -6  -7 5723.98 99.6778   1
  -1  -6   7 4929.44 73.9269   2
   6  -1   7 4815.91 88.2509   2
   1   6   7 5615.73 97.0807   1
  -6   1  -7 5194.38 69.1860   1
   6  -1  -7 6165.29 108.815   1
  -6   1   7 5266.06 114.187   1
   6  -1   9 1353.45 63.5381   2
   1   6   9 1485.26 63.3911   1
  -1  -6  -9 1344.23 61.6110   1
   6  -1  -9 1507.08 71.6066   1
  -6   1  -9 1480.18 53.4623   1
   1   6  -9 1389.80 66.3456   1
  -1  -6   9 1470.15 54.3792   2
  -6   1   9 1382.16 69.7315   1
  -1  -6  11 1593.56 65.8687   2
   6  -1  11 1588.64 74.9672   2
  -1  -6 -11 1661.66 77.3595   1
  -6   1  11 1706.16 87.0632   1
   1   6 -11 1623.12 75.9956   1
  -6   1 -11 1829.93 69.6677   1
   6  -1 -13 43.9480 56.0884   1
  -6   1 -13 185.245 66.3166   1
   6  -1  13 165.617 61.8206   2
   1   6 -13 146.209 62.4528   1
  -1  -6  13 133.623 57.9490   2
  -1  -6 -13 125.420 53.5638   1
   1   6  13 116.651 63.9216   2
  -6   0   0 11419.1 83.6950   1
   0   6   0 11389.8 92.2452   1
   0  -6   2 3013.34 54.8276   1
   0   6  -2 3019.52 52.4220   1
   6   0  -2 2959.91 48.2363   1
   6   0   4 4361.63 67.8986   2
  -6   0   4 4233.49 82.8778   1
   0   6   4 4425.23 72.6228   1
   6   0  -4 4366.00 72.1939   1
   0  -6   4 3977.75 59.3034   1
  -6   0  -4 4375.21 38.6979   1
  -6   0  -4 4691.49 38.2743   1
   0  -6   4 4375.60 58.2336   2
   0   6  -4 4416.66 63.8359   1
   0   6  -6 1241.14 48.6297   1
   6   0  -6 1357.76 52.7686   1
  -6   0  -6 1432.42 36.8572   1
  -6   0  -6 1222.21 31.8957   1
   0   6   6 1356.41 52.5342   1
   0  -6   6 1207.08 38.8578   1
   6   0   6 1278.47 47.6614   2
   0  -6   6 1276.61 41.8174   2
  -6   0   6 1267.88 58.5488   1
   6   0  -8 752.379 57.4870   1
   0   6   8 648.503 48.4998   1
   0  -6   8 653.170 41.5674   2
  -6   0  -8 727.834 40.2964   1
  -6   0   8 673.301 61.7456   1
   0  -6  -8 653.230 50.1993   1
   6   0   8 729.094 49.0755   2
   0   6  -8 585.223 44.9505   1
   6   0  10 521.104 55.2036   2
  -6   0  10 451.439 59.8712   1
   0   6  10 610.211 54.2808   1
   0   6 -10 447.581 51.0314   1
  -6   0 -10 513.271 49.7153   1
   6   0 -10 425.767 58.3105   1
   0  -6 -10 512.621 58.4641   1
   0  -6  10 411.560 46.0701   2
   0   6 -12 12.1112 54.2263   1
   6   0  12 212.237 59.0543   2
   0  -6 -12 69.9904 54.2598   1
   0  -6  12 90.8591 48.5254   2
  -6   0 -12 114.870 48.6705   1
   6   0 -12 117.925 63.6094   1
   6   1  -1 20041.6 101.507   1
   1  -6  -1 20999.8 131.753   1
  -1   6   1 20060.0 131.701   1
  -6  -1   1 20035.0 135.816   1
  -6  -1  -1 19859.1 90.1587   1
  -6  -1  -1 20217.0 91.9731   1
   1  -6   1 20268.9 132.145   1
  -1   6  -1 19278.4 111.841   1
   6   1  -3 5158.29 69.0021   1
   6   1   3 4943.45 65.9730   2
  -1   6   3 4614.61 66.4417   1
  -1   6  -3 4822.20 60.7533   1
  -6  -1  -3 4929.82 39.8939   1
   1  -6   3 4356.53 53.5106   1
  -6  -1   3 5125.66 85.7007   1
  -6  -1  -3 5079.10 44.1498   1
   1  -6  -3 5793.90 83.5374   1
  -1   6  -5 17511.7 127.982   1
   1  -6   5 17076.5 103.024   1
   1  -6  -5 20481.9 163.879   1
   6   1  -5 18788.9 154.587   1
  -6  -1   5 16692.0 159.330   1
  -6  -1  -5 18234.9 100.419   1
   6   1   5 17672.4 135.721   2
  -1   6   5 18265.9 154.244   1
   1  -6   5 18688.3 131.685   2
  -6  -1  -5 18213.5 111.306   1
   1  -6   7 312.080 32.4350   2
   1  -6   7 314.821 21.3486   1
   6   1  -7 380.621 46.8444   1
  -1   6  -7 309.390 36.2525   1
   1  -6  -7 325.337 42.0010   1
   6   1   7 286.137 37.6173   2
  -6  -1  -7 429.212 35.5545   1
  -6  -1   7 311.694 49.9222   1
  -1   6   7 361.832 41.1640   1
  -1   6   9 6644.43 114.710   1
   6   1   9 7096.09 127.141   2
   6   1  -9 6719.62 122.527   1
  -6  -1  -9 6684.27 98.5489   1
  -1   6  -9 6441.36 111.354   1
   1  -6  -9 6642.80 126.548   1
  -6  -1   9 6924.62 135.504   1
  -6  -1 -11 4.12774 45.8838   1
  -6  -1  11 5.25100 51.4324   1
   1  -6 -11 61.9205 51.9828   1
  -1   6 -11 89.5609 50.8507   1
   1  -6  11 137.604 46.7195   2
   6   1 -11 128.529 54.3176   1
   6   1  11 60.1307 49.5784   2
   6   1 -13 856.734 77.8311   1
  -1   6 -13 854.446 76.0540   1
   1  -6 -13 954.397 76.8248   1
   1  -6  13 819.129 67.0997   2
   6   1  13 746.098 76.6680   2
   2  -6   0 652214. 760.909   1
  -2   6   0 654967. 670.471   1
  -2   6   2 3373.44 66.8090   1
  -2   6  -2 4004.23 65.0719   1
  -6  -2  -2 2172.05 41.2321   1
   6   2  -2 2499.88 47.9876   1
  -6  -2   2 2623.57 62.3775   1
  -6  -2  -2 2390.29 38.7622   1
  -6  -2   4 270645. 622.307   1
   6   2  -4 284827. 551.430   1
  -6  -2  -4 271159. 399.800   1
   6   2   4 274857. 503.186   2
  -2   6   4 268614. 574.253   1
  -6  -2   6 4409.45 92.1678   1
  -2   6  -6 6475.43 85.5556   1
   2  -6   6 7232.17 93.9406   2
   6   2  -6 4465.99 87.1529   1
   2  -6  -6 4895.97 93.3327   1
   6   2   6 4644.82 84.8686   2
  -6  -2  -6 4596.71 67.5493   1
  -2   6   6 5269.41 96.6187   1
  -2   6  -8 50014.6 253.835   1
   2  -6   8 49599.8 262.619   2
   6   2  -8 48562.9 310.866   1
  -6  -2   8 46591.3 325.028   1
   6   2   8 49678.7 273.950   2
  -2   6   8 46981.4 307.256   1
  -6  -2  -8 48258.9 243.802   1
   2  -6  -8 47007.4 297.497   1
   6   2 -10 5170.42 115.661   1
  -2   6 -10 4922.91 108.161   1
  -6  -2 -10 5780.99 110.947   1
  -2   6  10 5354.13 115.384   1
   2  -6 -10 6017.94 130.074   1
  -6  -2  10 4972.45 119.546   1
   6   2  10 5603.70 114.795   2
   2  -6  10 5191.13 100.382   2
  -2   6 -12 5031.73 129.140   1
   6   2  12 4522.41 128.325   2
  -6  -2 -12 5259.09 124.911   1
   2  -6 -12 4669.83 124.470   1
   2  -6  12 4946.54 111.835   2
   6   2 -12 4774.43 126.854   1
  -3   6  -1 1161.22 31.9041   1
  -6  -3  -1 1205.41 32.9324   1
   6   3   1 1213.26 27.4019   1
   6   3  -1 1107.95 31.3586   1
  -3   6  -1 1250.57 31.5555   1
   3  -6  -1 1246.02 36.9462   1
  -6  -3   1 1136.66 40.2066   1
   3  -6   1 1247.61 28.5930   1
  -3   6   1 1246.80 38.3479   1
   3  -6  -3 185.184 30.5415   1
  -3   6   3 202.045 32.9700   1
   6   3  -3 105.745 26.3641   1
  -3   6  -3 168.646 20.5232   1
  -3   6  -3 147.253 17.7682   1
  -6  -3  -3 220.374 23.6693   1
  -6  -3   3 157.933 35.2141   1
   6   3   3 128.167 19.2699   2
   6   3   3 112.095 10.6536   1
  -3   6   5 1569.95 58.0403   1
  -6  -3   5 1251.51 57.7622   1
   6   3   5 1428.10 49.2947   2
  -3   6  -5 1290.05 35.9637   1
   6   3  -5 1217.08 51.5353   1
  -6  -3  -5 1574.47 41.1327   1
   6   3  -7-26.8742 40.2059   1
  -6  -3   7 12.4890 41.1175   1
   3  -6  -7 42.6465 39.4499   1
  -6  -3  -7 60.6850 29.9701   1
  -3   6  -7 42.6209 30.9492   1
   6   3   7 51.6535 34.3474   2
   3  -6   7 39.9093 31.8794   2
   3  -6  -9 453.920 59.4859   1
   6   3  -9 541.520 55.7158   1
  -3   6  -9 409.007 43.5617   1
   3  -6   9 390.455 46.8250   2
  -6  -3  -9 419.374 44.5916   1
   6   3   9 384.417 51.6482   2
  -6  -3   9 446.430 58.8806   1
  -3   6   9 335.768 53.0562   1
  -6  -3  11 28.7453 53.6374   1
   3  -6  11-41.4640 44.5012   2
   6   3 -11 5.93993 51.5049   1
   6   3  11 19.2721 51.3802   2
   3  -6 -11 126.720 59.3970   1
  -3   6  11 91.6278 54.4258   1
  -3   6 -11 4.28112 46.1045   1
  -6  -3 -11-73.2986 47.1765   1
  -3   6 -13-21.5020 57.6341   1
   6   3  13-46.3709 66.4264   2
  -6  -3 -13 28.1469 59.0683   1
   6   3 -13 121.209 65.2418   1
   3  -6  13 61.8205 56.4084   2
   3  -6 -13 35.5601 59.3171   1
  -6  -3  13 104.070 60.2999   2
   6   4   0 91.4651 18.6919   1
   4  -6   0 64.9363 18.7664   1
  -6  -4   0 53.4389 23.6781   1
  -4   6   0 40.9154 20.6702   1
   4  -6  -2 29.3620 23.8532   1
  -6  -4   2-0.41155 30.3611   1
   6   4   2 42.4257 16.2657   2
  -6  -4  -2 72.2654 21.1886   1
   6   4  -2 62.9167 22.9832   1
  -4   6   2 31.9214 25.5571   1
  -4   6  -2 25.8280 14.2972   1
  -4   6  -2 39.2317 16.4943   1
   6   4   2 19.1663 13.8280   1
   6   4  -4 217.212 31.3455   1
  -6  -4   4 226.418 38.4475   1
  -4   6   4 309.032 38.3418   1
  -6  -4  -4 282.814 27.9335   1
   6   4   4 250.237 17.6746   1
  -4   6  -4 302.801 21.3888   1
  -4   6  -4 250.566 18.6540   1
   4  -6  -4 281.900 33.9765   1
   6   4   4 270.496 27.6398   2
  -4   6  -6 371.714 28.1923   1
  -4   6   6 419.898 47.4899   1
   6   4  -6 344.839 39.2925   1
   6   4   6 395.374 34.2682   2
   4  -6  -6 401.790 42.1544   1
   6   4   6 396.821 21.1706   1
  -6  -4  -6 470.581 39.6859   1
  -6  -4   6 411.299 48.3801   1
   6   4  -8 376.072 48.8251   1
  -6  -4   8 335.677 47.1588   1
  -4   6   8 322.979 55.4049   1
  -6  -4  -8 221.520 33.9239   1
   4  -6  -8 370.433 51.2972   1
   4  -6   8 344.025 44.2855   2
   6   4   8 481.152 46.2390   2
  -4   6  -8 304.262 34.5057   1
   4  -6  10 198.851 44.8642   2
  -6  -4 -10 192.238 44.6742   1
   4  -6 -10 217.659 55.2766   1
   6   4 -10 151.009 52.3912   1
  -6  -4  10 138.810 52.5399   1
  -4   6 -10 195.950 43.2836   1
  -4   6  10 230.661 57.2927   1
   6   4  10 201.592 49.4924   2
   4  -6  12 109.354 50.7325   2
   6   4  12 6.63447 57.5483   2
  -4   6 -12 65.9620 51.8296   1
   6   4 -12 22.5128 56.1173   1
  -6  -4  12 112.587 54.2470   2
  -6  -4 -12 115.727 53.9081   1
   4  -6 -12 161.274 63.3386   1
   6   5  -1 187.983 23.6166   1
  -6  -5  -1 207.111 27.0795   1
  -6  -5   1 198.742 32.0918   1
   6   5   1 212.230 21.5971   1
  -5   6  -1 175.817 18.2324   1
  -5   6  -1 232.483 18.4743   1
   5  -6  -1 183.740 21.0861   1
  -5   6   1 187.727 23.6387   1
  -5   6  -3 251.463 17.2028   1
  -6  -5  -3 285.320 28.6205   1
   5  -6  -3 251.550 29.8278   1
  -5   6   3 159.782 32.1359   1
   6   5   3 231.569 20.5782   2
  -6  -5   3 149.700 35.5360   1
  -5   6  -3 212.091 15.3286   1
   6   5   3 205.441 20.3329   1
   6   5  -3 187.115 28.1778   1
  -5   6   5 59.1734 38.7508   1
   6   5   5 106.435 19.5181   1
   6   5  -5 106.964 31.2666   1
   5  -6  -5 153.190 39.6041   1
  -6  -5   5 63.2776 38.9996   1
  -5   6  -5 122.341 17.6478   1
  -5   6  -5 85.5060 16.6502   1
   6   5   5 101.327 25.3999   2
  -6  -5  -5 84.5157 28.2357   1
  -6  -5  -7 397.248 40.3020   1
  -5   6   7 297.818 49.7780   1
  -5   6  -7 271.201 27.6069   1
   6   5   7 319.607 38.6766   2
  -6  -5   7 297.012 47.2654   1
   5  -6  -7 352.006 45.0322   1
   6   5  -7 213.521 37.5586   1
  -6  -5   9 54.7985 48.7724   1
   5  -6   9 71.6349 48.7777   2
  -6  -5  -9 41.8823 44.7031   1
  -5   6  -9 68.3032 33.6082   1
   6   5   9 57.7549 42.8678   2
  -5   6   9 159.867 57.0647   1
   5  -6  -9 126.356 54.2430   1
   6   5  -9 116.984 48.4784   1
  -5   6  11 103.385 61.2880   1
  -6  -5  11 85.7705 46.3070   2
   6   5 -11 89.4018 56.0350   1
   6   5  11-22.7162 49.7322   2
  -6  -5 -11 99.2778 51.7568   1
   5  -6  11-71.8996 49.3997   2
  -5   6 -11-16.7586 44.1288   1
   5  -6 -11 24.5916 58.7062   1
  -6  -5  13 19.6714 58.7808   2
   6   5  13 53.3376 68.2269   2
  -6  -5 -13 90.6464 59.1011   1
   6   5 -13 134.476 63.0115   1
   5  -6 -13-31.1670 59.8270   1
   5  -6  13-46.9497 57.6948   2
  -5   6 -13 241.016 58.4939   1
   6   6   0 5750.03 71.8909   1
  -6   6   0 5755.84 64.3413   1
  -6  -6   0 5917.33 86.1870   1
  -6   6   2 141.599 26.1865   1
   6  -6  -2 228.930 25.3683   1
  -6  -6   2 173.558 36.1027   1
   6   6   2 158.800 16.0187   2
   6   6   2 149.099 20.7818   1
  -6  -6  -2 221.642 31.7672   1
  -6   6  -2 197.858 15.8993   1
  -6   6  -2 168.484 14.2450   1
   6   6  -2 125.562 25.9089   1
  -6   6   4 4486.51 86.1569   1
   6   6   4 4391.84 61.4991   2
  -6  -6   4 3980.10 94.2975   1
   6  -6  -4 4648.19 82.0694   1
   6   6   4 4709.50 65.6098   1
  -6  -6  -4 4886.84 82.2807   1
  -6   6  -4 4280.95 39.3583   1
  -6   6  -4 4139.45 39.0763   1
   6   6  -4 4002.37 73.1990   1
   6   6   6 38.0042 25.3101   1
   6  -6  -6-11.2306 35.5880   1
   6   6  -6 47.6378 34.6889   1
  -6  -6  -6 17.5456 32.6406   1
  -6   6  -6-12.6811 18.1049   1
   6   6   6 45.0828 31.5299   2
  -6   6   6-56.8996 45.0693   1
  -6  -6   6 39.5744 42.7765   1
   6   6  -8 1352.52 61.7676   1
  -6  -6   8 1337.12 65.7127   1
   6  -6  -8 1539.23 70.7168   1
  -6  -6  -8 1373.64 59.9662   1
  -6   6   8 1618.79 83.4808   1
  -6   6  -8 1230.87 46.4556   1
   6   6   8 1563.29 65.5779   2
   6   6  10 65.5830 51.0368   2
  -6   6 -10-7.10199 36.9662   1
   6  -6  10 38.8460 46.9588   2
  -6  -6  10 89.9161 50.2012   1
   6   6 -10 29.2110 49.4152   1
  -6  -6  10 48.3365 36.5021   2
  -6  -6 -10 12.5763 48.9613   1
   6  -6 -10 47.0093 54.8396   1
   6   6 -12 307.408 63.6730   1
   6   6  12 322.733 61.0094   2
   6  -6 -12 484.922 68.4952   1
  -6  -6  12 319.124 58.1544   2
  -6   6  12 294.035 75.0127   1
  -6   6 -12 368.883 54.9495   1
  -6  -6 -12 396.763 61.9786   1
   6  -6  12 205.201 60.6140   2
  -6  -7  -1 10366.5 118.746   1
   6   7  -1 11355.6 110.924   1
  -6  -7   1 11751.0 140.478   1
  -7   6  -1 10460.2 74.1225   1
   6   7   1 11131.7 100.700   1
  -7   6  -1 9988.35 71.9908   1
  -7   6   1 10586.7 98.9389   1
   7  -6  -1 9894.65 75.5512   1
   6   7  -3 3296.17 73.5989   1
  -6  -7   3 3348.19 81.9810   1
   6   7   3 3086.78 49.5095   2
   6   7   3 2997.02 61.3888   1
   7  -6  -3 3248.45 63.6281   1
  -6  -7  -3 3091.60 74.7410   1
  -6  -7   5 18661.6 191.843   1
  -7   6  -5 15445.0 68.3464   1
  -6  -7  -5 14256.9 149.876   1
  -7   6   5 14048.9 168.050   1
  -6  -7   5 16451.7 100.772   2
  -7   6  -5 15421.3 69.0323   1
   6   7  -5 18115.1 161.002   1
   7  -6  -5 16882.6 170.730   1
   6   7   5 14200.9 135.121   1
   6   7   5 15865.8 139.512   2
   6   7  -7 425.894 49.5383   1
  -6  -7   7 491.519 59.6263   1
  -6  -7   7 448.599 31.7566   2
   6   7   7 194.642 40.8865   2
   6   7   7 56.3677 31.0474   1
  -6  -7  -7 106.584 39.8682   1
   7  -6  -7 30.4343 37.7187   1
  -7   6   7-1.18110 51.0376   1
  -7   6  -7 202.258 24.2626   1
  -6  -7  -9 7677.79 133.121   1
   7  -6  -9 8629.39 149.299   1
  -6  -7   9 8792.90 111.275   2
   6   7   9 8313.28 136.562   2
  -6  -7   9 8336.13 143.070   1
   6   7  -9 8113.69 140.252   1
  -7   6   9 8794.40 181.808   1
  -7   6  -9 9469.12 111.399   1
  -7   6 -11 111.417 42.3308   1
  -6  -7 -11 147.601 55.0743   1
  -6  -7  11 100.633 44.5752   2
   6   7 -11 146.276 57.0264   1
   7  -6 -11 110.505 60.7343   1
   6   7  11 39.2174 54.8477   2
  -7   6  11-35.8094 70.3991   1
   6   7  13 2765.19 111.047   2
  -7   6 -13 2451.85 94.8840   1
   6   7 -13 2572.86 111.459   1
  -6  -7  13 2432.28 90.0727   2
   7  -6 -13 2450.31 106.617   1
  -6  -7 -13 2753.75 106.218   1
  -7   5   0 2418.69 40.6220   1
  -7   5   0 2308.02 38.8992   1
   5   7   0 2271.02 51.1820   1
   7  -5  -2 50.0142 20.6246   1
  -7   5   2 25.7500 26.8760   1
   5   7  -2-23.4794 25.5232   1
  -5  -7  -2 19.4663 31.2718   1
  -5  -7   2 46.0078 33.6285   1
   5   7   2 8.08295 12.6605   2
   5   7   2 82.6733 23.6197   1
   5   7  -4 442.213 39.7920   1
  -5  -7   4 466.665 20.8187   2
   5   7   4 499.545 29.6103   2
  -5  -7   4 358.888 41.2478   1
   7  -5  -4 557.657 39.2308   1
  -7   5   4 549.324 46.9909   1
  -5  -7  -4 517.269 42.3483   1
   5   7   4 449.344 34.6523   1
  -5  -7   6 373.346 45.8667   1
  -7   5   6 343.153 46.9081   1
   5   7   6 384.069 34.4335   1
   5   7   6 404.191 35.4649   2
  -7   5  -6 310.503 17.7908   1
   5   7  -6 372.840 39.1307   1
   7  -5  -6 366.282 44.0669   1
  -5  -7   6 342.468 25.0325   2
  -5  -7  -6 452.271 44.9435   1
   7  -5  -8 49.0781 45.3083   1
  -7   5   8 26.9098 53.9690   1
   5   7  -8 16.5011 46.5455   1
  -5  -7   8-6.52373 39.3874   1
   5   7   8 29.9831 39.5815   2
  -5  -7   8-3.74257 28.8857   2
  -5  -7  -8-23.9186 43.1249   1
  -7   5  -8 0.11709 25.2001   1
  -7   5 -10 337.488 40.7022   1
  -7   5  10 327.180 67.6598   1
   5   7 -10 172.476 55.7912   1
   7  -5 -10 295.333 55.4434   1
   5   7  10 316.834 57.0765   2
  -5  -7 -10 319.197 52.7960   1
  -5  -7  10 260.349 43.0202   2
   7  -5  10 314.961 56.2737   2
  -5  -7 -12-2.79990 59.8735   1
   7  -5 -12-2.51567 54.2863   1
   5   7 -12-84.9440 60.0830   1
  -7   5 -12 12.6732 47.3184   1
   7  -5  12 28.9496 55.5811   2
  -7   5  12 71.9427 74.0340   1
  -5  -7  12 20.2990 44.2755   2
   5   7  12-27.0363 62.5674   2
  -4  -7  -1 7404.51 94.1278   1
   4   7   1 7186.06 46.8219   2
  -7   4  -1 7000.70 49.0366   1
   7  -4  -1 7718.49 61.6628   1
  -4  -7   1 6817.71 101.574   1
  -7   4   1 7015.27 72.4438   1
  -7   4  -1 7342.86 47.1176   1
   4   7   1 6897.48 84.2786   1
   4   7  -1 6592.24 82.3910   1
  -4  -7   3 166.649 12.5407   2
  -4  -7  -3 193.976 31.6159   1
  -4  -7   3 140.053 33.4906   1
  -7   4   3 210.047 36.4003   1
   7  -4  -3 206.663 27.6358   1
   4   7   3 174.990 26.3093   1
   4   7  -3 176.210 29.7883   1
  -4  -7   5 9408.10 82.4560   2
  -7   4   5 8939.51 133.209   1
   4   7   5 9398.54 102.953   1
  -4  -7  -5 10041.8 124.781   1
   7  -4  -5 9692.99 120.637   1
   4   7  -5 8784.26 117.436   1
   4   7  -7 159.359 40.5109   1
  -4  -7   7 134.363 38.7052   1
  -4  -7  -7 184.035 41.8184   1
   7  -4  -7 222.637 47.7400   1
   4   7   7 247.069 37.8423   2
  -4  -7   7 191.950 27.6288   2
   4   7   7 198.837 33.7033   1
  -7   4  -7 181.064 22.3318   1
  -7   4   7 141.743 45.2896   1
  -4  -7  -9 3679.03 97.0065   1
  -7   4  -9 3439.15 70.5648   1
   7  -4   9 3651.88 97.3895   2
   4   7  -9 3187.17 93.3637   1
   7  -4  -9 4634.58 123.259   1
  -7   4   9 4272.46 122.609   1
  -4  -7   9 3891.81 100.194   1
  -4  -7   9 3670.61 79.0623   2
   4   7   9 4075.66 92.8206   2
  -7   4 -11 44.3605 40.3574   1
   7  -4 -11 31.6951 57.1800   1
   4   7 -11-2.71524 51.0185   1
  -4  -7 -11-30.7042 51.6290   1
  -7   4  11-129.201 65.8615   1
  -4  -7  11-65.4522 43.2114   2
   4   7  11 51.6575 53.5835   2
   7  -4  11 51.9429 52.1728   2
   7  -4  13 953.697 80.5183   2
   4   7 -13 726.109 78.3182   1
   7  -4 -13 913.877 82.6167   1
   4   7  13 801.008 82.4804   2
  -7   4 -13 695.382 64.5567   1
  -4  -7 -13 780.663 74.4254   1
  -4  -7  13 963.902 70.6212   2
  -3  -7   0 1554.90 47.9123   1
  -7   3   0 1439.28 31.9117   1
  -7   3   0 1455.91 27.8766   1
   3   7   0 1559.01 44.0846   1
  -7   3   2 1105.82 39.2873   1
  -3  -7   2 1113.84 49.1571   1
   7  -3  -2 1077.46 33.9501   1
   3   7  -2 1007.86 39.1651   1
   3   7   2 1062.82 39.3643   1
  -3  -7   4 196.295 36.2379   1
   7  -3  -4 235.623 34.1807   1
  -3  -7  -4 330.729 38.5610   1
   3   7   4 226.962 31.1198   1
   3   7  -4 197.262 29.1764   1
  -3  -7   4 246.010 19.7325   2
  -7   3   4 276.991 41.3485   1
  -7   3   6 28.1688 47.2086   1
  -3  -7   6 13.5660 35.1800   1
   3   7   6-8.78908 29.9902   1
   3   7  -6-11.8278 35.9076   1
  -3  -7  -6 42.1035 37.4184   1
  -3  -7   6 18.0497 20.9046   2
  -7   3  -6-27.4299 14.5394   1
   7  -3  -6-43.8912 37.4049   1
   7  -3  -8 72.4093 45.9505   1
   3   7  -8-3.15295 42.3176   1
  -7   3   8 77.4643 48.3643   1
  -7   3  -8-15.7756 24.5106   1
  -3  -7  -8 52.1148 43.9370   1
   3   7   8-47.3566 33.3532   1
   7  -3   8 55.5772 44.2058   2
  -3  -7   8 41.3094 29.0919   2
  -3  -7   8 36.4896 29.0285   1
   3   7  10 23.9572 51.7941   2
   7  -3  10 35.6044 51.5182   2
  -7   3 -10 71.3965 37.9327   1
  -3  -7  10 15.5198 36.1125   2
  -7   3  10-20.8582 59.3074   1
   7  -3 -10 92.3947 55.6848   1
  -3  -7 -10 52.5350 51.8862   1
   3   7 -10 23.8006 45.9872   1
  -7   3 -12 275.976 51.2084   1
   3   7 -12 109.064 61.1672   1
   7  -3  12 101.547 57.9045   2
   3   7  12 105.287 61.1885   2
  -3  -7  12 110.510 48.4624   2
  -7   3  12 163.423 69.7201   1
  -3  -7 -12 214.152 74.2752   1
   7  -3 -12 171.459 61.6937   1
  -7   2  -1 689.072 15.9683   1
  -2  -7  -1 783.005 39.6322   1
  -7   2  -1 626.891 12.8264   1
  -2  -7   1 690.729 40.9253   1
   7  -2  -1 843.827 24.6211   1
  -7   2   1 651.093 29.4727   1
   2   7   1 714.730 34.3115   1
   2   7  -1 575.049 33.2156   1
   2   7  -3 315.813 28.9652   1
  -2  -7   3 293.216 32.3060   1
  -7   2   3 340.630 35.9942   1
  -2  -7  -3 393.263 40.2092   1
   7  -2  -3 414.642 30.7897   1
   2   7   3 379.559 31.1283   1
  -2  -7  -5 1873.36 62.5965   1
  -2  -7   5 1783.97 42.1183   2
  -7   2  -5 1649.62 20.8636   1
  -2  -7   5 1449.41 48.7726   1
  -7   2  -5 1391.04 17.0352   1
   7  -2  -5 2208.61 68.3652   1
   2   7   5 1902.91 57.3489   1
   2   7  -5 1575.03 51.9389   1
  -7   2   5 1991.26 67.3349   1
   2   7  -7 438.959 42.8085   1
   7  -2   7 435.677 45.4875   2
  -7   2  -7 443.919 26.6741   1
  -7   2   7 397.536 54.3202   1
   2   7   7 549.202 43.1202   1
  -2  -7   7 431.197 35.2414   1
  -2  -7  -7 484.225 44.9610   1
  -2  -7   7 437.245 31.9873   2
  -7   2   9 468.491 60.2649   1
  -7   2  -9 389.673 36.6230   1
   7  -2  -9 452.056 64.2108   1
   2   7  -9 459.111 54.5919   1
  -2  -7   9 378.817 38.8270   2
  -2  -7  -9 591.651 59.2368   1
   7  -2   9 431.969 52.7334   2
   2   7   9 441.917 46.5227   1
   2   7 -11-17.2513 53.4046   1
  -2  -7  11 56.3664 40.0417   2
  -7   2 -11 14.1590 41.3115   1
  -2  -7 -11-8.18055 58.1282   1
  -7   2  11 3.34854 62.6050   1
   7  -2 -11-67.9989 53.9511   1
   2   7  11-30.5571 56.8734   2
   7  -2  11 64.0683 53.9818   2
   7  -2  13 71.1225 65.7578   2
   2   7 -13 52.0835 60.2801   1
  -7   2 -13 58.7863 55.5172   1
   7  -2 -13 28.0553 60.8469   1
  -2  -7  13 39.9256 58.3866   2
   2   7  13 52.5118 67.4443   2
  -2  -7 -13 13.9620 67.6699   1
  -7   1   0 4662.84 48.0995   1
  -7   1   0 4388.18 53.4101   1
   7  -1  -2 47758.9 216.918   1
  -1  -7   2 50919.0 227.304   1
   1   7   2 51272.0 225.061   1
  -1  -7  -2 48672.8 245.126   1
   1   7  -2 51278.6 213.308   1
  -7   1   2 51471.1 234.952   1
  -1  -7   4 11134.8 90.5412   2
  -7   1   4 8812.38 117.337   1
  -1  -7   4 10617.5 106.684   1
   7  -1  -4 8489.18 101.873   1
   1   7   4 10594.7 123.981   1
   1   7  -4 10608.4 106.548   1
  -1  -7  -4 9882.75 123.211   1
  -1  -7   6 7485.53 87.8717   1
  -7   1   6 6945.80 121.140   1
   7  -1   6 6015.05 96.7579   2
  -7   1  -6 6118.60 56.1254   1
   7  -1  -6 6686.85 105.851   1
   1   7  -6 7327.31 108.033   1
  -1  -7  -6 6660.26 103.773   1
   1   7   6 6974.47 107.835   1
  -7   1  -6 6698.24 62.8866   1
  -1  -7   6 7256.67 86.6326   2
  -7   1  -8 7946.28 91.1988   1
   1   7  -8 8254.57 119.672   1
   7  -1  -8 7927.14 128.242   1
  -1  -7  -8 8888.77 135.496   1
   7  -1   8 7790.95 122.302   2
   1   7   8 8632.90 129.581   1
  -1  -7   8 9172.75 118.756   2
  -7   1   8 7904.83 149.847   1
  -1  -7   8 8359.21 103.171   1
   1   7 -10 1190.28 71.7505   1
   7  -1  10 842.436 64.2126   2
  -7   1  10 867.985 73.6081   1
  -1  -7  10 1182.59 62.4496   2
  -7   1 -10 928.973 52.0739   1
   7  -1 -10 860.894 72.7806   1
  -1  -7 -10 1084.80 74.6656   1
  -7   1  12 3162.50 120.610   1
   1   7  12 2861.57 106.510   2
   1   7 -12 2833.27 103.452   1
   7  -1 -12 2833.74 110.342   1
  -7   1 -12 3142.07 99.8700   1
  -1  -7 -12 3146.39 106.140   1
   7  -1  12 2679.33 99.4985   2
  -1  -7  12 2367.25 83.8305   2
  -7   0   1 31.5312 23.5860   1
   7   0  -1 21.2849 15.6266   1
   0  -7  -1 79.4587 27.6626   1
   0  -7   1 11.9121 27.0739   1
  -7   0  -1 13.5204 11.3920   1
  -7   0  -1 23.6351 13.3353   1
   0   7   1 34.0691 23.7357   1
   0   7  -1 15.7046 21.2844   1
  -7   0   3 1813.66 54.5166   1
   0  -7   3 1897.91 47.8712   1
   0  -7  -3 2434.04 63.4205   1
   0   7  -3 1901.84 46.3203   1
  -7   0  -3 1875.90 21.9635   1
  -7   0  -3 2274.41 22.7670   1
   0   7   3 2256.78 58.4289   1
   7   0  -3 2063.66 48.7148   1
   0  -7   5 998.234 36.9326   2
   0  -7   5 916.285 32.8850   1
   7   0  -5 1148.11 48.9895   1
  -7   0   5 1057.70 53.8160   1
  -7   0  -5 1185.04 26.9466   1
   0  -7  -5 1138.72 54.2978   1
   0   7  -5 1016.23 42.0945   1
   0   7   5 1188.37 51.8844   1
  -7   0  -5 1026.38 24.3560   1
   7   0   5 1155.12 45.5126   2
   0  -7  -7 1357.80 59.4038   1
   7   0   7 1252.57 55.4335   2
   0  -7   7 1096.02 36.9096   1
   0  -7   7 1329.20 47.4327   2
   7   0  -7 1490.35 65.3805   1
  -7   0  -7 1327.25 40.0152   1
   0   7  -7 1148.11 54.0652   1
   0   7   7 1371.35 59.5327   1
  -7   0   7 1287.00 73.8183   1
  -7   0   9 713.805 68.8518   1
   7   0   9 723.088 56.7935   2
   0   7  -9 679.556 51.9792   1
   0   7   9 775.168 58.3188   1
   7   0  -9 866.857 65.4820   1
   0  -7   9 665.262 45.3026   2
  -7   0  -9 798.863 48.9907   1
   0  -7  -9 732.491 60.1010   1
   0   7 -11 307.895 58.0290   1
   7   0  11 161.277 53.6963   2
   0  -7  11 163.780 43.5635   2
  -7   0  11 249.285 64.0535   1
   7   0 -11 255.083 59.6664   1
  -7   0 -11 233.712 43.9874   1
   0  -7 -11 174.543 54.0472   1
   0  -7  13 110.694 55.6535   2
  -7   0 -13 169.943 53.5957   1
   7   0  13 163.882 63.5790   2
   0   7  13 299.633 73.5277   2
   0   7 -13 246.684 60.6393   1
   0  -7 -13 279.866 66.8347   1
   7   0 -13 192.646 71.1525   1
  -7  -1   0 73.0213 15.2320   1
   7   1   0 89.0463 12.7716   1
   1  -7   0 89.4999 28.2407   1
  -7  -1   0 70.7686 22.3904   1
  -1   7   0 67.5876 23.4383   1
  -7  -1  -2-4.15053 12.7230   1
   1  -7   2 31.2658 22.7078   1
  -7  -1   2 41.8267 28.5702   1
   7   1  -2 10.2419 19.2394   1
   1  -7  -2 1.59466 25.4711   1
  -7  -1  -2 7.74884 11.2127   1
  -1   7   2 13.8012 27.1090   1
  -1   7  -2 29.5721 23.1998   1
  -7  -1  -4 114.079 16.3869   1
   7   1   4 129.255 26.5719   2
   1  -7   4 123.069 20.2404   1
   7   1  -4 95.4984 30.0869   1
  -7  -1  -4 115.951 15.3153   1
   1  -7  -4 107.620 35.7036   1
  -7  -1   4 96.5109 37.6091   1
  -1   7  -4 119.832 26.1608   1
  -1   7   4 87.3302 31.8290   1
  -7  -1   6 25.4070 38.8233   1
  -1   7   6 46.2335 33.0318   1
  -1   7  -6 70.5738 27.7704   1
   1  -7   6 8.77126 15.8640   1
   1  -7  -6 72.4606 38.3692   1
   7   1  -6 63.2043 36.9059   1
   1  -7   6 31.8799 27.4011   2
   7   1   6 23.1151 29.7816   2
  -7  -1  -6 15.6255 21.5196   1
  -7  -1  -6 12.7350 16.5584   1
   1  -7  -8 272.933 54.0757   1
  -1   7  -8 192.109 38.2040   1
   7   1   8 223.207 44.3822   2
  -1   7   8 156.552 41.8079   1
  -7  -1   8 282.875 57.9880   1
   7   1  -8 223.335 48.6617   1
  -7  -1  -8 241.260 32.3289   1
   1  -7   8 179.083 35.3148   2
   1  -7 -10 155.014 52.2102   1
   7   1  10 169.834 48.3679   2
  -7  -1  10 203.896 57.1647   1
  -1   7 -10 148.366 48.2807   1
   1  -7  10 146.188 39.8591   2
  -7  -1 -10 166.659 42.1220   1
   7   1 -10 192.995 54.7068   1
  -1   7  10 214.350 50.9163   1
  -7  -1 -12 148.028 54.4473   1
   1  -7 -12 4.00514 54.4612   1
   7   1  12 75.3252 59.2114   2
   1  -7  12 27.1404 45.0462   2
  -1   7 -12 146.077 58.2378   1
   7   1 -12 109.924 60.9432   1
   2  -7  -1 145.149 26.5016   1
  -2   7  -1 123.518 23.1917   1
  -7  -2  -1 135.745 15.6924   1
  -2   7   1 135.804 27.3172   1
   2  -7   1 125.302 23.7557   1
  -7  -2   1 166.818 29.4070   1
   7   2  -1 154.820 19.5041   1
  -7  -2  -1 148.232 18.8878   1
   7   2   1 159.398 12.6155   1
  -7  -2  -3 360.530 23.6814   1
   2  -7  -3 312.385 34.7450   1
  -7  -2   3 318.412 38.2537   1
   7   2  -3 274.883 27.7863   1
  -7  -2  -3 299.610 18.8035   1
  -2   7  -3 301.436 24.6737   1
  -2   7   3 249.240 34.1822   1
   2  -7   3 257.439 16.5393   1
   7   2   5 563.359 35.8340   2
  -7  -2   5 724.960 55.8418   1
   7   2  -5 674.170 44.2140   1
  -7  -2  -5 601.712 26.4482   1
  -2   7   5 697.338 46.0268   1
  -2   7  -5 583.851 30.2826   1
   2  -7  -5 772.098 48.4812   1
   7   2   7 18.3619 34.8807   2
  -2   7  -7 34.9451 31.3188   1
   7   2  -7-7.67295 38.9718   1
  -7  -2  -7 24.1158 26.1385   1
   2  -7  -7 70.3531 46.3671   1
  -7  -2   7 2.25886 40.8565   1
   2  -7   7-2.46500 32.9605   2
  -2   7   7 3.37073 40.4195   1
   7   2   9 81.0675 48.1040   2
  -2   7   9 78.8196 49.4855   1
   2  -7   9 48.0735 40.0236   2
  -2   7  -9 98.4574 38.0567   1
  -7  -2   9-36.4602 53.6692   1
   2  -7  -9 93.8273 49.8484   1
   7   2  -9-30.2395 48.3831   1
  -7  -2  -9 83.4104 40.7621   1
  -2   7  11-2.78063 49.0916   1
   2  -7  11-42.2887 44.5232   2
  -7  -2 -11-82.8238 46.6775   1
  -2   7 -11 7.63262 47.0022   1
  -7  -2  11 0.96031 57.3097   1
   7   2  11 77.8315 53.7384   2
   2  -7 -11 8.09701 50.7343   1
   2  -7  13 21.9633 55.0281   2
   7   2  13 88.7555 67.8811   2
  -2   7 -13 122.781 62.6310   1
   7   2 -13-69.3520 62.5687   1
  -7  -2 -13-53.6818 53.2985   1
   2  -7 -13-58.0490 60.5618   1
  -7  -3   0 3170.00 58.1888   1
  -3   7   0 3297.72 54.7870   1
   7   3   2 1840.60 26.0247   1
   7   3  -2 1859.12 45.4977   1
   3  -7  -2 2302.18 53.2774   1
  -3   7   2 2150.04 54.5314   1
  -3   7  -2 1951.39 41.3430   1
  -7  -3  -2 2036.71 40.3625   1
  -7  -3   2 1893.93 57.2519   1
  -3   7   4 2422.13 68.4142   1
   3  -7  -4 2743.33 71.1180   1
   7   3  -4 2300.99 60.1628   1
  -7  -3  -4 2609.35 47.6784   1
   7   3   4 2473.87 53.5490   2
  -3   7  -4 2431.71 49.2701   1
  -3   7  -6 1057.47 43.5610   1
  -3   7   6 1097.51 58.5581   1
  -7  -3  -6 1010.69 38.5815   1
   7   3   6 1081.72 46.2620   2
   7   3  -6 1106.46 54.1159   1
  -7  -3   6 1005.61 63.8773   1
  -3   7  -8 810.629 48.8326   1
   3  -7  -8 1031.97 73.7822   1
   7   3  -8 814.906 57.9413   1
  -7  -3  -8 893.443 48.4303   1
   7   3   8 859.712 60.4552   2
   3  -7   8 786.221 52.5891   2
  -3   7   8 973.572 65.9972   1
   7   3 -10 365.423 58.8372   1
  -7  -3 -10 342.224 48.5441   1
   7   3  10 346.341 58.8732   2
   3  -7  10 380.722 48.1193   2
  -3   7  10 468.426 61.6845   1
  -7  -3  10 252.696 58.6452   1
  -3   7 -10 414.011 52.1763   1
   3  -7 -10 329.843 53.7211   1
   7   3  12 9.56327 60.0238   2
  -3   7 -12 98.7200 52.8201   1
   7   3 -12-36.2640 59.8353   1
  -7  -3 -12 33.6815 52.3121   1
   3  -7 -12-6.56922 56.7470   1
   3  -7  12 27.1021 50.6768   2
   7   4   1 29476.0 135.141   1
   7   4  -1 30258.7 148.851   1
  -7  -4  -1 28636.4 163.657   1
  -4   7  -1 28102.3 141.700   1
   4  -7  -1 28157.6 161.685   1
  -7  -4   1 30415.0 178.412   1
   7   4   3 8739.13 64.1363   1
  -4   7  -3 9506.82 77.4550   1
   7   4  -3 11325.7 111.252   1
  -7  -4   3 10812.4 124.703   1
   4  -7  -3 9631.96 114.023   1
   7   4   3 9699.68 92.8021   2
  -7  -4  -3 9149.17 90.4205   1
  -4   7   3 9941.03 120.103   1
  -4   7  -3 9511.29 81.9621   1
   7   4  -5 24553.1 182.154   1
  -7  -4  -5 23565.8 162.151   1
  -4   7   5 26145.2 216.167   1
   7   4   5 24418.4 171.859   2
  -7  -4   5 26132.6 232.730   1
  -4   7  -5 25345.4 141.431   1
  -4   7  -5 24911.9 133.228   1
   4  -7  -5 23389.9 193.385   1
   4  -7  -7 2537.85 85.9394   1
   7   4  -7 3288.30 87.6279   1
  -7  -4   7 2858.08 92.6817   1
   7   4   7 2650.43 77.0276   2
  -7  -4  -7 2928.88 76.0193   1
  -4   7  -7 2954.53 61.3187   1
  -4   7  -9 8321.54 118.152   1
  -4   7   9 9363.96 160.425   1
   4  -7   9 9540.56 142.574   2
   7   4  -9 8566.74 137.510   1
  -7  -4  -9 7815.85 115.026   1
   7   4   9 9240.92 139.826   2
   4  -7  -9 8695.93 141.163   1
  -7  -4   9 9239.81 161.437   1
  -4   7 -11 126.154 47.1885   1
   7   4 -11 88.9654 59.6505   1
   7   4  11 41.0956 56.3474   2
   4  -7  11 78.8317 50.2407   2
  -7  -4 -11 48.1057 40.6948   1
  -7  -4  11 118.891 55.8663   1
   4  -7 -11 140.833 50.2659   1
  -4   7  11 169.279 59.8312   1
   4  -7  13 2713.63 101.321   2
  -7  -4 -13 2904.84 103.094   1
   7   4 -13 2859.55 110.981   1
  -4   7 -13 2817.12 99.4612   1
   4  -7 -13 2682.09 104.430   1
   7   4  13 2722.44 112.580   2
  -7  -5   0 4078.88 74.6164   1
  -5   7   0 4231.94 63.9076   1
   7   5   2 456.475 22.7306   1
   5  -7  -2 509.204 33.5784   1
   7   5  -2 423.050 29.1466   1
  -5   7   2 483.183 37.0377   1
  -7  -5   2 431.687 41.4123   1
  -5   7  -2 492.613 25.8241   1
  -5   7  -2 410.502 21.9524   1
  -7  -5  -2 573.950 34.5902   1
  -7  -5   4 2144.43 67.7128   1
   7   5   4 2641.73 52.6319   2
  -7  -5  -4 2880.82 61.0679   1
  -5   7  -4 2664.74 44.5309   1
  -5   7  -4 2577.81 42.4334   1
   5  -7  -4 3373.66 78.0221   1
   7   5  -4 2345.33 59.0360   1
   7   5   4 2587.66 41.1330   1
  -5   7   4 2822.63 76.4564   1
  -5   7  -6-3.20503 21.3443   1
   5  -7  -6-11.2296 38.7522   1
  -7  -5  -6 35.2977 31.3106   1
  -5   7   6-26.8245 45.1528   1
   7   5   6 5.24254 17.1299   1
   7   5   6-11.1008 30.0306   2
   7   5  -6 24.4550 36.1182   1
  -7  -5   6 109.018 44.7053   1
   5  -7  -8 140.195 47.5613   1
  -7  -5  -8 285.687 42.1980   1
  -5   7  -8 188.539 35.2957   1
  -5   7   8 281.235 58.1979   1
   7   5   8 183.177 44.3743   2
  -7  -5   8 197.436 47.2346   1
   7   5  -8 91.3283 45.6778   1
   7   5  10 303.753 54.8932   2
   5  -7  10 431.226 55.9426   2
  -5   7 -10 316.531 46.4758   1
  -7  -5 -10 565.298 62.3016   1
  -7  -5  10 418.549 62.4331   1
  -5   7  10 390.689 67.4459   1
   7   5 -10 404.508 56.7046   1
   5  -7 -10 449.513 53.9180   1
   5  -7  12-15.5823 53.7513   2
  -5   7 -12 66.7436 48.1828   1
  -5   7  12 42.2762 64.1417   1
  -7  -5  12 33.2948 53.2899   2
   7   5 -12 80.9719 64.9321   1
   5  -7 -12-50.8310 52.1883   1
   7   5  12 62.6656 62.0689   2
  -7  -5 -12 26.1262 60.0157   1
  -6   7   1 48.0141 25.6104   1
  -6   7  -1-1.18702 14.4676   1
  -7  -6  -1-24.1716 28.7898   1
  -7  -6   1-2.22334 31.4798   1
   7   6  -1-1.14415 22.9542   1
   6  -7  -1-20.0300 20.7436   1
  -6   7  -1-30.5476 19.0217   1
   7   6   1-8.05760 18.8941   1
  -6   7  -3 583.002 23.4441   1
   6  -7  -3 661.443 40.2354   1
   7   6  -3 399.885 32.3206   1
   7   6   3 497.390 26.4116   2
  -7  -6   3 462.263 44.2515   1
  -6   7  -3 451.851 18.4429   1
  -6   7   3 593.936 42.4890   1
  -7  -6  -3 747.649 41.8605   1
   7   6   3 537.950 26.9481   1
   7   6  -5 539.613 45.0595   1
  -7  -6  -5 519.286 40.3122   1
  -7  -6   5 436.568 49.5617   1
   7   6   5 610.558 30.4257   1
   7   6   5 665.186 38.2314   2
  -6   7   5 648.046 51.7610   1
  -6   7  -5 504.820 22.0587   1
  -6   7  -5 536.929 24.4655   1
   6  -7  -5 594.553 46.2285   1
  -6   7  -7 1362.42 41.7308   1
  -6   7   7 1773.45 84.1385   1
  -7  -6   7 1484.61 74.9041   1
   7   6  -7 1561.14 67.4262   1
   6  -7  -7 2069.28 80.9513   1
   7   6   7 1811.17 62.2802   2
  -7  -6  -7 1655.04 59.4183   1
  -6   7  -9 435.737 38.8083   1
  -6   7   9 520.297 71.3143   1
   7   6  -9 417.454 56.1660   1
   7   6   9 489.890 54.3096   2
  -7  -6  -9 346.548 48.2144   1
  -7  -6   9 447.584 58.5035   1
   6  -7  -9 397.997 54.4520   1
   6  -7 -11 380.812 57.1338   1
   7   6  11 484.882 64.3005   2
   7   6 -11 269.308 58.0979   1
  -7  -6  11 520.394 53.1245   2
  -6   7 -11 479.912 52.9353   1
  -6   7  11 580.626 80.0714   1
  -7  -6 -11 433.076 61.6297   1
  -6   7 -13 18.2125 50.9783   1
   7   6 -13 23.7734 67.1471   1
   6  -7 -13 75.5814 60.1946   1
   7   6  13-68.6025 71.1473   2
  -7  -6  13 82.4675 65.1335   2
  -7  -6 -13 34.0127 60.9876   1
   7   7   0 3105.70 58.3860   1
  -7   7   0 3216.45 54.7701   1
   7   7  -2 633.899 38.6118   1
  -7   7   2 762.582 41.3681   1
   7   7   2 721.867 26.4384   2
  -7  -7   2 710.203 50.6049   1
  -7   7  -2 794.405 25.6281   1
   7   7   2 756.949 32.8723   1
   7  -7  -2 824.803 34.0219   1
  -7  -7  -2 720.207 42.8989   1
  -7   7  -2 634.334 24.2625   1
   7   7  -4 2142.85 58.0370   1
  -7   7  -4 2297.34 32.5202   1
   7   7   4 2816.74 57.4248   1
  -7   7   4 2387.60 73.5375   1
  -7  -7   4 2002.07 71.4478   1
  -7   7  -4 2331.22 34.3109   1
   7   7   4 2954.48 59.5325   2
   7  -7  -4 2686.83 67.3617   1
  -7  -7  -4 2676.21 69.6365   1
  -7  -7   6 499.204 54.9629   1
   7  -7  -6 449.035 46.7475   1
   7   7   6 506.479 39.5153   2
   7   7   6 485.464 33.0734   1
  -7   7  -6 398.498 21.8043   1
  -7  -7  -6 555.775 48.0147   1
   7   7  -6 388.584 47.0433   1
  -7   7   6 537.700 57.8956   1
  -7   7  -8 577.749 39.5142   1
  -7  -7  -8 466.404 49.1574   1
   7   7  -8 593.469 57.1281   1
  -7  -7   8 614.486 60.9214   1
  -7  -7   8 568.678 38.9590   2
  -7   7   8 606.482 69.8230   1
   7  -7  -8 615.198 57.0915   1
  -7  -7  10 50.0680 52.8252   1
   7   7  10-22.6428 48.9559   2
  -7   7  10 144.186 70.3696   1
  -7  -7 -10 86.8843 49.3845   1
  -7   7 -10 31.8345 39.5316   1
   7   7 -10 88.7728 53.3968   1
  -7  -7  10 44.7498 38.5471   2
   7  -7 -10 54.7809 50.4307   1
   7  -7 -12 50.2758 55.9167   1
   7   7 -12 47.6063 60.5148   1
  -7   7  12 5.33650 75.3710   1
  -7   7 -12 130.476 47.1467   1
   7   7  12 130.606 65.3768   2
  -7  -7 -12 148.113 60.4041   1
  -7  -7  12 180.002 54.5225   2
   7   8  -1 4445.06 74.7705   1
  -8   7   1 4929.08 74.7169   1
  -8   7  -1 4666.27 57.0343   1
  -7  -8   1 4302.51 93.5865   1
  -7  -8  -1 4504.02 87.9597   1
   7   8   1 4806.86 75.1831   1
  -8   7  -1 4706.62 56.9708   1
  -8   7   3 8453.83 112.620   1
   7   8  -3 7617.96 107.545   1
  -8   7  -3 8946.04 59.6935   1
  -8   7  -3 8499.93 54.4134   1
  -7  -8   3 8460.35 47.5139   2
   7   8   3 8374.43 79.2419   2
  -7  -8   3 8111.94 128.956   1
   8  -7  -3 9315.04 104.292   1
  -7  -8  -3 9543.79 125.017   1
   7   8   3 8631.77 101.365   1
  -7  -8  -5 332.571 40.9395   1
  -8   7  -5 255.154 16.1957   1
   7   8   5 320.556 33.2537   1
  -7  -8   5 273.775 47.5941   1
  -8   7   5 274.488 48.6314   1
  -7  -8   5 239.220 20.0213   2
   8  -7  -5 394.810 41.3393   1
   7   8   5 306.155 31.9696   2
   7   8  -5 289.617 39.1416   1
  -7  -8   7 5640.08 123.913   1
   7   8  -7 5188.57 101.397   1
  -7  -8   7 6124.85 78.6574   2
  -7  -8  -7 6809.54 118.326   1
   7   8   7 6841.85 108.775   2
  -8   7   7 6552.23 139.756   1
  -8   7  -7 5759.56 65.5435   1
   8  -7  -7 7665.63 137.113   1
  -8   7  -9 45.5151 32.5864   1
  -7  -8   9 11.2498 33.4578   2
  -7  -8   9 89.1352 49.3771   1
   7   8   9-18.0810 45.4399   2
  -8   7   9-36.8132 63.4467   1
   7   8  -9-29.1029 48.8380   1
  -7  -8  -9 31.6158 50.6258   1
   8  -7  -9-31.7347 47.6404   1
   8  -7 -11 1551.76 82.1729   1
  -8   7 -11 1368.35 63.1564   1
   7   8 -11 1450.53 83.7774   1
  -7  -8 -11 1683.81 82.8212   1
   7   8  11 1653.55 79.7658   2
  -6  -8   0 5261.15 93.5589   1
  -8   6   0 5438.42 62.7609   1
   6   8   0 5375.93 77.6956   1
   8  -6  -2 41.3817 20.1166   1
  -6  -8   2 54.6551 35.2753   1
   6   8   2 9.81795 27.5871   1
   6   8  -2 44.9893 28.8786   1
  -8   6  -2 33.4142 11.4406   1
  -8   6  -2 24.4718 11.5569   1
   6   8   2 43.6037 14.9595   2
  -6  -8  -2 56.4822 34.5479   1
  -8   6   2 37.3353 30.6696   1
  -8   6   4 2253.38 71.8107   1
  -6  -8   4 2074.90 34.0908   2
   6   8   4 2268.31 51.2202   2
   8  -6  -4 2270.64 62.5255   1
   6   8   4 2212.70 58.4997   1
  -6  -8  -4 2253.92 68.9251   1
  -6  -8  -6 55.7521 39.6620   1
   6   8   6 43.6502 31.7819   2
  -8   6   6 76.7508 49.3844   1
  -8   6  -6 36.5006 13.7155   1
  -6  -8   6 25.4720 42.4825   1
   6   8   6 66.2941 32.4218   1
   6   8  -6 65.8711 39.3466   1
  -6  -8   6 54.9067 24.0780   2
   8  -6  -6 89.2679 39.8484   1
  -6  -8   8 176.588 49.4240   1
  -6  -8   8 212.505 33.5382   2
  -8   6  -8 212.397 30.5309   1
  -8   6   8 98.9561 59.0251   1
   8  -6  -8 229.398 49.8246   1
   6   8   8 191.074 44.1587   2
  -6  -8  -8 223.247 51.3057   1
   6   8  -8 110.317 48.4832   1
  -6  -8 -10 107.181 55.1702   1
  -8   6 -10 110.009 34.4298   1
   6   8 -10-2.54128 53.2548   1
   6   8  10-17.7571 53.7243   2
   8  -6 -10 78.7840 53.2992   1
  -8   6  10-71.3270 65.7340   1
  -6  -8  10 106.777 40.3714   2
   6   8  12-1.04905 63.1349   2
   8  -6 -12-11.3453 60.1951   1
  -8   6  12 98.9310 81.1892   1
   6   8 -12-101.095 64.9624   1
  -8   6 -12-4.78107 42.7314   1
  -6  -8 -12 141.669 63.4521   1
  -5  -8   1 5561.47 101.079   1
  -8   5  -1 5577.65 54.1016   1
   5   8   1 5881.09 86.0398   1
  -5  -8  -1 5719.20 92.1616   1
  -8   5   1 5540.32 69.9938   1
   5   8   1 5413.14 43.1764   2
  -8   5  -1 5535.32 49.2126   1
   5   8  -1 5384.50 77.1247   1
  -5  -8  -3 2232.11 64.7382   1
   5   8   3 2520.31 62.4833   1
   5   8  -3 1873.55 54.2702   1
  -5  -8   3 2046.61 26.5445   2
   5   8   3 2415.77 43.7760   2
  -8   5   3 2316.54 64.8077   1
  -5  -8   3 2216.84 70.6028   1
   8  -5  -3 2426.63 55.2298   1
   5   8   5 5872.55 89.3969   1
   8  -5  -5 5562.50 90.6600   1
   5   8   5 6186.74 81.9075   2
   5   8  -5 5196.15 98.2139   1
  -5  -8   5 5130.98 106.093   1
  -5  -8  -5 5772.57 98.7699   1
  -5  -8   5 5522.52 62.4768   2
  -8   5   5 5415.06 111.744   1
   5   8  -7 365.806 46.2680   1
  -5  -8   7 424.419 53.8649   1
   8  -5  -7 572.179 50.6780   1
  -5  -8   7 501.406 34.4702   2
  -5  -8  -7 481.573 46.9873   1
   5   8   7 600.436 44.7087   1
  -8   5  -7 469.969 26.2066   1
  -8   5   7 437.406 54.1789   1
   5   8   7 407.506 41.6350   2
  -5  -8  -9 2024.89 85.5947   1
   5   8  -9 1701.08 80.2621   1
  -5  -8   9 1630.36 71.8758   1
  -8   5   9 1983.27 99.1884   1
   8  -5  -9 1948.65 80.2313   1
  -5  -8   9 1757.78 57.3615   2
  -8   5  -9 1642.11 52.8360   1
   5   8   9 1934.83 74.8906   2
  -8   5 -11 193.269 41.7872   1
  -8   5  11 57.8721 71.8184   1
  -5  -8 -11 162.336 57.8176   1
   5   8 -11 113.911 57.4472   1
  -5  -8  11 171.053 44.2706   2
   5   8  11 152.711 60.1511   2
   8  -5 -11 177.962 58.5863   1
   5   8 -13 193.210 66.6634   1
  -8   5 -13 195.313 49.8617   1
   8  -5 -13 114.842 67.6158   1
  -5  -8  13 120.580 53.8122   2
  -5  -8 -13 109.691 68.6149   1
  -4  -8   0 263701. 606.617   1
   4   8   0 264925. 532.060   1
   4   8   2 3416.91 69.1172   1
  -8   4   2 4027.78 72.0584   1
  -4  -8   2 4442.20 86.7973   1
   4   8  -2 4118.93 74.0121   1
  -4  -8  -2 2468.10 69.0870   1
   4   8  -4 154298. 427.275   1
  -8   4   4 155352. 503.815   1
  -4  -8   4 157490. 507.064   1
   8  -4  -4 151923. 445.959   1
  -4  -8   4 153345. 284.112   2
   4   8   4 151843. 461.181   1
  -4  -8  -4 150716. 495.051   1
  -8   4  -6 2989.15 34.9345   1
  -4  -8   6 2336.23 74.2099   1
   4   8  -6 2745.36 78.0803   1
   8  -4  -6 2697.09 74.7799   1
  -4  -8   6 2691.68 53.4020   2
  -4  -8  -6 2640.93 79.6222   1
   4   8   6 2540.35 65.0482   1
  -8   4   6 2736.34 87.2378   1
   4   8   8 30243.3 232.521   2
  -4  -8  -8 29982.6 253.642   1
  -8   4   8 30417.0 278.001   1
  -4  -8   8 32176.8 239.910   1
  -8   4  -8 31757.7 166.148   1
   8  -4  -8 31067.4 261.990   1
  -4  -8   8 33346.1 191.054   2
   4   8  -8 31541.1 249.061   1
   4   8   8 31016.9 229.908   1
   4   8  10 3389.92 97.1103   2
  -4  -8  10 3756.76 84.0563   2
   4   8 -10 3384.02 105.163   1
  -8   4 -10 3630.59 77.2524   1
   8  -4  10 3458.29 103.449   2
  -8   4  10 3492.45 124.385   1
   8  -4 -10 3736.08 111.939   1
  -4  -8 -10 3645.50 102.982   1
   4   8 -12 2655.73 103.137   1
  -8   4 -12 2365.55 79.9314   1
   4   8  12 2779.45 111.017   2
   8  -4  12 2174.52 97.5997   2
   8  -4 -12 2677.55 107.266   1
  -4  -8  12 2656.09 85.2911   2
  -4  -8 -12 2397.54 98.9577   1
  -8   4  12 3043.22 136.958   1
  -8   3   1 169.298 25.3601   1
   3   8  -1 227.486 30.2202   1
  -3  -8   1 214.379 36.9711   1
  -8   3  -1 240.048 15.1002   1
  -8   3  -1 247.000 14.1725   1
   8  -3  -1 267.556 18.3689   1
   3   8   1 240.826 30.8703   1
  -3  -8  -1 325.141 35.0077   1
  -3  -8  -3 512.567 42.5463   1
  -3  -8   3 424.175 40.6135   1
   3   8   3 371.477 32.0626   1
   8  -3  -3 387.510 30.2399   1
  -8   3   3 361.132 35.2604   1
   3   8  -3 388.219 33.8002   1
   3   8  -5 619.328 43.1269   1
   8  -3  -5 865.985 47.8724   1
  -8   3   5 776.309 60.1200   1
  -3  -8   5 725.089 30.5385   2
   3   8   5 697.117 41.6475   1
  -3  -8  -5 825.081 51.1705   1
  -3  -8   5 625.564 44.9425   1
   3   8  -7 329.675 39.9235   1
  -8   3  -7 473.354 24.8014   1
  -3  -8   7 428.498 41.2723   1
   3   8   7 434.391 42.2420   1
   8  -3  -7 435.422 49.8849   1
  -3  -8   7 447.798 35.7191   2
  -8   3   7 520.984 60.9618   1
  -3  -8  -7 432.469 47.7591   1
  -8   3   9 301.150 60.4658   1
   8  -3   9 305.565 53.3561   2
  -8   3  -9 242.940 32.8772   1
   8  -3  -9 383.937 58.8689   1
  -3  -8   9 220.818 37.1474   2
  -3  -8  -9 272.341 53.6372   1
   8  -3  11 111.493 64.0151   2
  -8   3 -11 75.6733 39.7600   1
  -3  -8  11 53.6018 42.4576   2
   3   8 -11 9.43219 54.0031   1
   3   8  11 70.9912 56.2859   2
   8  -3 -11 51.2636 55.1562   1
  -8   3  11 152.297 71.2877   1
  -3  -8 -11 37.7796 52.2179   1
   8  -3  13-0.99646 72.9688   2
  -8   3 -13 122.382 47.8007   1
  -3  -8  13-91.6673 54.7512   2
   3   8 -13-85.6284 68.8354   1
  -3  -8 -13 68.6929 62.2800   1
   8  -3 -13 84.5062 71.2976   1
   3   8  13 71.5511 71.3554   2
  -2  -8   0 3940.58 73.8518   1
  -8   2   0 3486.26 49.4113   1
  -8   2   0 3857.02 46.0276   1
   2   8   0 3527.69 67.2647   1
  -2  -8  -2 77.5977 29.6698   1
   8  -2  -2 78.6086 20.1990   1
   2   8  -2 98.0448 29.4649   1
  -2  -8   2 7.62600 30.0471   1
   2   8   2 65.0603 26.3946   1
  -8   2   2 74.1225 29.1096   1
   2   8   4 1956.20 58.1562   1
  -2  -8  -4 2047.77 63.1558   1
  -8   2   4 1673.73 57.7002   1
   8  -2  -4 1882.35 50.7419   1
  -2  -8   4 1491.01 51.3777   1
   2   8  -4 1672.24 54.4847   1
  -2  -8   6 23.9246 32.7333   1
  -8   2   6 50.4261 47.7166   1
   2   8  -6 24.7668 35.5076   1
   2   8   6 65.7316 35.8719   1
  -8   2  -6 42.3154 14.9486   1
   8  -2  -6 90.7386 39.4599   1
  -2  -8   6 47.9143 24.4507   2
  -2  -8  -6 48.4132 39.2832   1
   2   8  -8 658.490 49.1942   1
   8  -2  -8 823.648 63.4339   1
   8  -2   8 717.083 57.7539   2
  -2  -8   8 739.226 44.3892   1
  -2  -8   8 621.130 41.4331   2
  -2  -8  -8 816.846 57.3397   1
   2   8   8 778.884 53.2539   1
  -8   2  -8 716.727 36.3340   1
  -8   2   8 680.340 65.6293   1
  -8   2  10 12.4848 61.4779   1
   8  -2 -10 117.705 53.3646   1
   2   8 -10 23.9080 51.5297   1
   8  -2  10 28.5840 50.5148   2
  -8   2 -10 48.1907 35.9503   1
  -2  -8  10 121.942 40.1054   2
  -2  -8 -10 45.4192 55.5415   1
   8  -2 -12 235.595 69.0231   1
   2   8 -12 154.484 61.1800   1
   8  -2  12 116.368 59.6894   2
  -8   2 -12 232.537 52.3095   1
  -2  -8 -12 261.732 64.0331   1
   2   8  12 259.194 72.2756   2
  -2  -8  12 166.064 48.2631   2
  -8   2  12 131.323 71.7178   1
  -8   1  -1 1588.34 28.8367   1
  -1  -8   1 1613.95 54.8967   1
  -8   1  -1 1617.23 26.6714   1
  -8   1   1 1474.38 43.4140   1
   1   8  -1 1588.55 48.8930   1
   1   8   1 1484.45 49.1387   1
   8  -1  -3 108.188 26.9227   1
  -1  -8  -3 122.517 31.5639   1
  -1  -8   3 45.1346 26.5233   1
   1   8   3 83.1100 31.3420   1
   1   8  -3 93.5479 31.0409   1
  -8   1   3 80.1206 33.7456   1
   1   8  -5 577.159 39.1480   1
  -1  -8   5 612.238 36.9501   1
  -8   1  -5 635.563 17.8518   1
   8  -1  -5 625.930 40.2400   1
  -8   1   5 521.314 47.4161   1
  -1  -8  -5 568.643 46.7008   1
   1   8   5 629.957 46.2586   1
  -8   1  -5 567.147 15.3492   1
  -1  -8   5 722.257 35.7012   2
   1   8  -7 20.7842 38.1027   1
  -8   1   7 29.9806 49.0347   1
  -1  -8   7 51.9201 24.9347   1
  -1  -8  -7 60.6448 43.2514   1
  -8   1  -7-32.2126 21.3464   1
   8  -1   7 26.7640 39.4295   2
  -1  -8   7 35.6564 26.3651   2
   8  -1  -7 14.8014 38.2455   1
   1   8   7-14.9528 41.6120   1
   1   8   9 46.4539 46.4999   1
   1   8  -9 86.7006 45.5149   1
   8  -1   9-28.6476 47.3643   2
  -1  -8   9-46.3695 36.5289   2
  -8   1  -9-13.2721 31.4241   1
  -8   1   9-8.21386 58.6522   1
  -1  -8  -9-23.6964 48.5947   1
   8  -1  -9 143.790 58.0119   1
   8  -1 -11 97.3173 61.1016   1
  -8   1  11-21.3097 64.2104   1
   1   8 -11 49.5808 49.7704   1
  -8   1 -11 36.1127 44.3669   1
   8  -1  11 19.0515 53.5412   2
  -1  -8 -11-41.4408 58.3622   1
  -1  -8  11-18.5061 42.0805   2
   1   8 -13-63.9646 63.4070   1
   8  -1  13 93.5780 64.3566   2
  -8   1 -13-10.4518 47.3108   1
   1   8  13-68.4323 72.4635   2
   8  -1 -13-77.8506 60.0418   1
  -1  -8 -13-7.54038 64.8566   1
  -1  -8  13 82.0882 53.5793   2
  -8   0   0 2317.79 39.3363   1
   0   8   0 2189.98 51.8823   1
   0  -8   0 2345.95 57.1535   1
  -8   0   0 2223.42 43.6213   1
  -8   0   2 1229.85 47.5904   1
   8   0  -2 1224.13 36.9894   1
   0  -8   2 1106.60 43.4480   1
   0   8  -2 1221.93 43.4190   1
  -8   0  -2 1327.72 23.0206   1
   0   8   2 1329.08 47.9295   1
  -8   0  -2 1209.37 21.5856   1
   8   0  -4 1829.08 55.1423   1
  -8   0   4 1695.45 65.7241   1
   0  -8  -4 2165.61 68.8089   1
  -8   0  -4 1626.03 25.9062   1
  -8   0  -4 1643.12 24.2284   1
   0   8   4 1789.17 60.8834   1
   0  -8   4 1218.72 38.7055   1
   0   8  -4 1456.57 47.0425   1
   0  -8  -6 601.613 55.8318   1
   0  -8   6 317.438 26.4904   1
   0   8   6 526.019 47.5373   1
   0   8  -6 489.635 36.8881   1
   8   0  -6 538.901 46.4677   1
  -8   0   6 452.942 52.1968   1
  -8   0  -6 485.411 26.3746   1
   0  -8   6 375.811 34.4430   2
   8   0   6 499.329 42.2097   2
   0  -8   8 289.656 38.4651   2
   0   8  -8 334.989 42.7479   1
   8   0  -8 322.417 50.8795   1
   0   8   8 375.877 51.2448   1
   0  -8  -8 406.910 50.2820   1
  -8   0   8 302.429 61.8001   1
  -8   0  -8 405.774 35.2572   1
   8   0   8 470.839 49.9246   2
  -8   0 -10 17.9788 35.4104   1
   8   0  10-55.4074 52.7865   2
   0   8 -10 14.4078 47.7681   1
   8   0 -10 45.8648 52.4041   1
   0  -8 -10 51.3703 52.8841   1
   0  -8  10-62.9062 38.7742   2
   0   8  10 29.7638 48.7574   1
  -8   0  10 98.3368 60.6880   1
   8   0 -12-48.7685 62.7541   1
  -8   0 -12 100.673 47.6897   1
   0   8 -12 57.9077 58.9419   1
  -8   0  12-76.3049 65.1457   1
   0  -8  12-93.0632 48.6079   2
   0  -8 -12-71.0732 60.4703   1
   8   0  12-49.5553 60.3369   2
   1  -8  -1 29139.3 187.915   1
  -8  -1  -1 30634.4 133.366   1
  -1   8   1 31175.6 197.742   1
   1  -8   1 30147.1 195.902   1
   8   1  -1 32602.0 137.863   1
  -1   8  -1 28217.0 166.338   1
  -8  -1  -1 31531.4 126.741   1
  -8  -1   1 31338.0 182.987   1
  -8  -1  -3 12098.6 75.6592   1
   8   1  -3 10844.8 111.949   1
  -1   8   3 9735.11 121.076   1
   1  -8  -3 10600.0 128.311   1
  -8  -1   3 10709.8 132.513   1
   1  -8   3 10309.3 101.602   1
  -1   8  -3 10459.1 108.581   1
  -8  -1  -3 11545.1 72.7409   1
  -8  -1   5 27408.6 235.422   1
  -1   8   5 24326.4 199.136   1
   1  -8   5 25068.2 129.767   1
   8   1  -5 25576.5 198.467   1
  -8  -1  -5 25587.9 122.971   1
   8   1   5 25752.5 186.453   2
   1  -8  -5 24027.1 202.983   1
  -1   8  -5 25535.1 161.182   1
  -8  -1  -5 24345.5 131.740   1
  -1   8   7 2465.11 79.1343   1
   8   1  -7 2707.19 82.7734   1
  -8  -1   7 2376.10 96.0718   1
  -8  -1  -7 3167.82 59.8908   1
   8   1   7 3384.97 85.1553   2
   1  -8   7 3357.82 76.3269   2
   1  -8  -7 2442.92 78.8420   1
  -1   8  -7 3243.85 72.4380   1
   1  -8   9 9545.86 130.682   2
  -1   8  -9 8460.25 125.681   1
   8   1   9 8539.54 139.690   2
   1  -8  -9 8804.16 144.153   1
   8   1  -9 9144.59 156.705   1
  -8  -1  -9 8919.71 115.044   1
  -8  -1   9 9047.17 167.251   1
  -1   8   9 7924.67 137.370   1
  -1   8 -11 78.4788 53.7606   1
  -8  -1  11-1.25898 62.8533   1
   8   1 -11-7.53652 56.2925   1
   8   1  11 121.728 57.0133   2
  -8  -1 -11 32.9377 46.0966   1
   1  -8 -11 103.442 67.3433   1
   1  -8  11 99.3992 47.9718   2
  -1   8 -13 2898.74 113.945   1
   1  -8 -13 3263.19 118.355   1
   8   1 -13 2992.91 124.315   1
  -8  -1 -13 2650.92 93.4219   1
   1  -8  13 2946.12 99.5567   2
  -8  -2   0 919.312 37.2685   1
   2  -8   0 1046.91 39.6583   1
   8   2   0 1046.97 27.1138   1
  -2   8   0 1042.39 42.6701   1
  -2   8   2 7771.36 100.235   1
  -2   8  -2 7170.61 84.8950   1
   8   2  -2 6939.68 82.1569   1
   2  -8   2 7265.50 80.3019   1
  -8  -2   2 6696.89 95.9030   1
   2  -8  -2 8302.60 104.856   1
  -8  -2  -2 7221.84 66.8252   1
  -8  -2  -2 7660.99 72.7236   1
   2  -8   4 1016.28 26.2990   1
   8   2  -4 1107.08 43.8900   1
  -8  -2  -4 1283.63 34.9551   1
   2  -8  -4 1322.79 57.1790   1
  -2   8   4 1099.73 47.1121   1
  -8  -2  -4 1116.90 31.7207   1
  -8  -2   4 1014.59 56.8408   1
  -2   8  -4 1018.23 37.9017   1
  -2   8   6 1724.75 66.7624   1
  -8  -2   6 1636.34 72.5986   1
   8   2  -6 1815.19 64.1397   1
   2  -8  -6 1971.91 72.8707   1
  -2   8  -6 1761.43 56.2873   1
   8   2   6 1900.31 60.8520   2
  -8  -2  -6 1651.55 41.1035   1
   2  -8  -8 1258.19 70.1861   1
   8   2   8 1076.79 59.1064   2
   8   2  -8 1235.03 66.4740   1
  -8  -2  -8 993.545 44.8195   1
  -8  -2   8 1126.98 64.4056   1
  -2   8  -8 1051.06 56.7196   1
  -2   8   8 1030.88 56.6655   1
   2  -8 -10 260.432 66.9329   1
   2  -8  10 143.750 46.2347   2
   8   2  10 241.838 53.8112   2
   8   2 -10 151.888 53.5160   1
  -2   8  10 230.001 55.9206   1
  -8  -2 -10 190.888 42.6696   1
  -8  -2  10 170.319 60.8985   1
  -2   8 -10 224.095 44.3085   1
  -2   8 -12 625.337 67.9692   1
   8   2 -12 561.337 73.3525   1
   2  -8 -12 617.134 77.6558   1
   2  -8  12 632.007 62.0020   2
  -8  -2 -12 676.466 60.5244   1
   8   2  12 650.901 72.1270   2
   3  -8   1 3322.66 54.6090   1
  -8  -3  -1 3148.64 58.0367   1
  -3   8  -1 3437.81 65.0607   1
   8   3   1 2961.78 39.0099   1
   8   3  -1 2910.63 50.3074   1
  -3   8   1 3275.59 63.0115   1
  -8  -3   1 3164.93 64.7786   1
   3  -8  -1 3571.97 65.5551   1
  -8  -3  -3 6.21090 18.2828   1
  -8  -3   3-17.8819 34.7305   1
   3  -8  -3 24.9263 32.8218   1
  -3   8   3-14.8837 34.4321   1
   8   3  -3-10.1088 25.5442   1
  -3   8  -3 25.9271 22.5961   1
   3  -8  -5 7629.62 115.216   1
  -3   8   5 7141.48 116.570   1
   8   3   5 7600.73 96.1318   2
  -8  -3  -5 7607.65 85.0489   1
   8   3  -5 7282.18 106.666   1
   8   3  -7 438.154 48.7309   1
  -8  -3   7 410.198 56.9896   1
  -8  -3  -7 453.456 35.0139   1
   8   3   7 402.017 43.0226   2
  -3   8   7 445.427 52.1263   1
   3  -8  -7 455.919 51.3539   1
  -3   8  -7 362.719 34.2566   1
  -8  -3  -9 3685.67 79.1871   1
  -3   8  -9 3190.30 79.8130   1
  -3   8   9 3766.89 105.265   1
   8   3  -9 3903.01 106.249   1
  -8  -3   9 3824.80 118.532   1
   8   3   9 3888.91 97.7246   2
   3  -8  -9 4386.13 111.922   1
   3  -8   9 3530.72 91.7170   2
  -3   8 -11 80.1320 49.6270   1
   8   3 -11 127.690 52.9610   1
   8   3  11 172.149 58.2906   2
   3  -8  11 121.058 50.5939   2
  -8  -3  11 169.505 62.8621   1
  -8  -3 -11 153.519 48.3818   1
  -3   8  11 136.185 58.4530   1
   3  -8 -11 194.565 64.0434   1
  -3   8 -13 599.123 70.7172   1
   8   3 -13 779.900 80.6378   1
  -8  -3 -13 731.575 64.3166   1
   3  -8 -13 669.577 81.2581   1
   3  -8  13 761.562 71.3379   2
   8   3  13 809.360 82.6511   2
   8   4   0 10.0043 16.1818   1
  -4   8   0-9.04986 23.6220   1
   4  -8   0-5.63794 22.9618   1
  -8  -4   0 14.5215 25.7156   1
   8   4   2 64.4839 13.1158   1
   4  -8  -2 72.6177 30.1726   1
   8   4  -2 112.517 24.9842   1
  -4   8   2 61.6170 31.6560   1
  -8  -4  -2 96.5051 25.2309   1
  -8  -4   2 53.6616 33.5457   1
  -4   8  -2 71.8197 24.0295   1
  -8  -4   4 189.218 45.0151   1
  -8  -4  -4 143.415 27.6230   1
  -4   8   4 151.691 39.6252   1
   8   4  -4 107.252 30.1274   1
   8   4   4 208.110 27.7116   2
   4  -8  -4 152.645 38.5619   1
  -4   8  -4 188.696 24.6456   1
  -4   8  -6-5.91182 24.0682   1
   8   4  -6 28.6605 35.1987   1
   8   4   6 5.38565 29.9526   2
  -8  -4  -6 16.3605 28.1226   1
   4  -8  -6-20.7754 40.5637   1
  -4   8   6 2.63363 43.2103   1
  -8  -4   6-33.3242 47.4902   1
  -4   8  -8 120.342 37.7360   1
   8   4  -8 157.934 48.7801   1
  -8  -4   8 125.637 51.2966   1
   8   4   8 65.0567 41.3311   2
  -4   8   8 152.526 54.6135   1
  -8  -4  -8 137.409 37.9865   1
   4  -8  -8 103.198 48.0078   1
  -8  -4  10 3.72821 58.5887   1
   4  -8  10-0.67912 47.4263   2
   8   4 -10-61.1588 53.3292   1
   8   4  10-18.3715 51.8596   2
  -4   8 -10 6.41439 41.9787   1
  -8  -4 -10 24.3724 42.1876   1
   4  -8 -10 21.2585 59.7150   1
  -4   8  10-44.9249 56.8522   1
   8   4  12-91.0253 63.4419   2
   4  -8  12-17.7535 52.3045   2
  -4   8 -12 120.657 56.4932   1
  -8  -4 -12 19.9088 51.6745   1
   8   4 -12 25.8869 59.7946   1
   4  -8 -12 51.8964 68.4416   1
  -8  -5  -1 1268.37 47.0189   1
  -5   8  -1 1289.27 38.9549   1
   8   5  -1 1383.57 41.0466   1
   8   5   1 1311.79 35.4786   1
  -8  -5   1 1202.46 47.9850   1
   8   5   3 278.175 19.1722   1
  -8  -5   3 411.880 43.8607   1
   8   5  -3 273.695 30.7235   1
  -5   8   3 338.862 43.2043   1
  -5   8  -3 344.206 25.7515   1
  -8  -5  -3 340.915 30.8422   1
   5  -8  -3 388.091 37.9388   1
  -5   8  -3 312.476 24.9796   1
   8   5   5 2745.45 37.0751   1
   8   5  -5 3103.20 76.6058   1
  -5   8   5 3484.38 91.0839   1
  -8  -5  -5 3501.42 72.4766   1
  -5   8  -5 2887.35 52.6676   1
   5  -8  -5 3562.52 85.5692   1
  -8  -5   5 2253.11 73.6415   1
   8   5   5 3137.40 65.5791   2
  -5   8  -7 859.555 40.1028   1
  -8  -5   7 732.685 62.5140   1
   8   5  -7 1044.02 59.9522   1
   5  -8  -7 1119.46 68.2790   1
  -8  -5  -7 1075.39 51.9710   1
   8   5   7 1172.80 56.0899   2
   8   5  -9 1569.25 77.2180   1
  -5   8  -9 1299.98 56.2750   1
  -8  -5  -9 1516.37 66.0386   1
  -8  -5   9 1393.80 76.0744   1
   8   5   9 1608.39 73.8003   2
  -5   8   9 1612.74 86.6191   1
  -8  -5 -11 122.759 48.1184   1
  -5   8 -11 51.3539 47.5072   1
   8   5 -11 183.413 61.5284   1
  -8  -5  11 110.149 58.9477   1
   8   5  11 104.180 58.4687   2
   5  -8 -11 22.7024 64.3024   1
  -5   8  11 108.696 66.6228   1
  -8  -5 -13 492.428 69.4004   1
  -8  -5  13 239.378 60.3705   2
  -5   8 -13 265.837 62.5607   1
   8   5 -13 201.304 65.8991   1
   5  -8 -13 282.586 78.5624   1
   8   5  13 295.478 72.1304   2
   8   6   0 18842.5 136.910   1
   6  -8   0 16446.7 111.792   1
  -8  -6   0 19398.4 170.977   1
  -6   8  -2 70265.8 236.413   1
   8   6  -2 72799.0 268.380   1
   8   6   2 71553.8 223.789   1
  -8  -6   2 73236.9 318.149   1
  -6   8  -2 70997.5 223.308   1
   6  -8  -2 70689.1 280.608   1
  -6   8   2 69727.8 311.431   1
  -8  -6  -2 72058.6 283.066   1
   6  -8  -4 6157.43 107.361   1
   8   6  -4 4973.66 89.7482   1
  -6   8  -4 6185.48 66.5974   1
  -6   8   4 5283.56 106.919   1
   8   6   4 4979.84 73.0522   2
   8   6   4 5126.44 67.1105   1
  -8  -6  -4 4972.92 83.8779   1
  -8  -6   4 4671.77 101.933   1
  -6   8  -4 6650.89 66.8043   1
   8   6  -6 18560.3 180.275   1
  -8  -6   6 17792.7 197.806   1
  -6   8   6 17274.8 205.307   1
   8   6   6 17466.2 160.910   2
   6  -8  -6 17641.1 184.898   1
  -6   8  -6 18534.0 123.997   1
   8   6  -8 494.886 54.9320   1
  -8  -6   8 437.623 60.0988   1
  -6   8   8 599.480 71.3697   1
   8   6   8 546.968 55.9978   2
   6  -8  -8 569.313 57.6137   1
  -8  -6  -8 467.582 47.8081   1
   6  -8 -10 579.860 71.7874   1
  -6   8 -10 581.341 50.4032   1
   8   6 -10 624.130 69.4345   1
  -8  -6 -10 601.075 59.8381   1
  -8  -6  10 512.101 67.5542   1
   8   6  10 522.546 66.7522   2
  -6   8  10 536.868 74.1899   1
  -6   8  12 45.6260 74.5070   1
  -8  -6  12 3.18436 48.9960   2
  -6   8 -12-49.4520 50.0041   1
   6  -8 -12-81.6779 67.5859   1
   8   6 -12 38.2249 62.7027   1
   8   6  12-34.6638 63.7759   2
  -8  -6 -12-29.1842 55.2367   1
   8   7  -1 537.456 35.9102   1
  -8  -7  -1 604.805 39.9813   1
   8   7   1 541.747 30.5689   1
  -8  -7   1 492.897 44.8627   1
  -7   8   1 610.878 37.7884   1
  -7   8  -1 550.051 29.8062   1
   7  -8  -1 690.731 29.1284   1
   7  -8  -3 33.3587 28.5661   1
  -8  -7   3 30.9427 40.1907   1
   8   7   3 35.8301 23.1244   1
  -8  -7  -3 11.4167 34.0230   1
   8   7  -3-25.2475 28.8525   1
  -7   8  -3-2.86451 17.9558   1
  -7   8  -3 11.7071 17.9210   1
   8   7   3-3.57615 22.3429   2
  -7   8   3-21.8177 38.7848   1
   7  -8  -5 482.846 45.2159   1
   8   7  -5 306.765 39.0152   1
  -7   8   5 306.740 53.5035   1
  -7   8  -5 392.068 21.8305   1
   8   7   5 467.844 34.4268   2
  -8  -7  -5 424.116 41.3762   1
  -8  -7   5 297.450 50.2588   1
   8   7   5 339.975 27.0753   1
  -8  -7  -7 44.4760 40.4391   1
  -7   8  -7 4.25234 22.7984   1
   8   7   7 48.1118 44.8426   2
   8   7  -7 51.2367 43.1765   1
   7  -8  -7 94.7803 49.1504   1
  -7   8   7 54.0696 57.2707   1
  -8  -7   7 15.4958 48.1260   1
  -7   8  -9-3.70382 35.6341   1
   8   7  -9 32.4708 52.3223   1
  -8  -7   9-45.8082 50.6405   1
   8   7   9-6.35725 46.6177   2
   7  -8  -9-43.1002 52.7665   1
  -8  -7   9 21.8724 34.6883   2
  -8  -7  -9-13.7788 47.1641   1
  -7   8   9 10.2253 64.4763   1
  -8  -7 -11 38.9911 57.6586   1
  -7   8 -11-29.9082 42.8233   1
  -7   8  11-39.2981 75.1228   1
   8   7 -11 49.0653 59.5509   1
   8   7  11-81.4138 61.9473   2
  -8  -7  11-27.7402 43.4650   2
   7  -8 -11-104.717 66.8535   1
   8   8   0 35.0697 25.5495   1
  -8   8   0-0.94525 24.1221   1
  -8  -8   0 83.5964 39.3780   1
  -8  -8  -2 1257.88 55.1997   1
   8  -8  -2 1498.51 43.3946   1
  -8   8   2 1343.64 52.6059   1
  -8  -8   2 1131.94 58.8459   1
  -8   8  -2 1360.94 36.6049   1
  -8   8  -2 1413.99 35.0280   1
   8   8  -2 1201.65 50.5019   1
   8   8   2 1304.44 45.1931   1
  -8   8  -4 44.0177 16.1591   1
   8   8   4 65.8584 26.3778   1
  -8  -8  -4 76.7306 34.6432   1
  -8  -8   4 34.5758 40.0767   1
   8   8  -4 32.0346 30.0696   1
   8   8   4 45.3541 23.1479   2
  -8   8   4 137.733 46.0153   1
   8  -8  -4 162.575 35.2830   1
   8   8  -6 273.146 46.2690   1
   8   8   6 373.577 44.3490   2
   8  -8  -6 397.197 50.9927   1
  -8  -8   6 239.712 52.8503   1
  -8  -8  -6 301.173 48.4926   1
  -8   8  -6 260.733 22.7697   1
  -8   8   6 314.076 60.4384   1
  -8  -8  -8 32.2455 43.4029   1
  -8  -8   8 20.4346 49.6923   1
   8   8  -8 58.3425 48.9194   1
   8   8   8 125.236 43.0350   2
  -8   8  -8 60.8565 26.5756   1
   8  -8  -8 42.5534 51.7153   1
  -8   8   8 168.279 63.9841   1
  -8  -8  10 197.383 57.4537   1
  -8   8  10 328.513 78.8434   1
  -8   8 -10 259.566 41.3146   1
   8   8 -10 223.096 59.4388   1
   8   8  10 388.188 57.9597   2
   8  -8 -10 357.671 73.9098   1
  -8  -8 -10 296.012 61.0336   1
  -8  -8 -12 68.4426 60.2742   1
   8   8  12 85.8247 71.3328   2
   8   8 -12 127.475 61.4642   1
  -8   8  12 68.9758 84.5939   1
   8  -8 -12 125.727 70.9687   1
   8   9  -1 737.277 40.1595   1
  -8  -9  -1 811.572 52.5311   1
  -9   8  -1 812.281 31.7420   1
  -8  -9   1 714.767 54.3480   1
  -9   8   1 720.076 38.1602   1
   8   9   1 891.401 46.9614   1
   8   9  -3 824.811 50.5795   1
  -9   8   3 1030.81 55.5990   1
   8   9   3 941.247 32.6244   2
  -9   8  -3 910.005 26.7562   1
  -8  -9   3 786.833 57.7076   1
   9  -8  -3 990.934 43.2862   1
  -8  -9  -3 1004.27 57.6518   1
   8   9   3 851.367 41.0246   1
   9  -8  -5 349.789 42.4604   1
   8   9  -5 301.418 42.5894   1
   8   9   5 396.541 34.6919   2
  -8  -9   5 243.377 52.4133   1
  -9   8  -5 431.985 22.3424   1
  -9   8   5 300.725 56.8121   1
  -8  -9  -5 396.168 51.0802   1
   8   9   5 421.642 38.0942   1
   9  -8  -7 257.555 47.0958   1
   8   9  -7 226.564 45.6800   1
  -8  -9  -7 246.018 51.3033   1
  -9   8   7 171.775 62.8873   1
   8   9   7 268.799 42.6113   2
   9  -8  -9 379.773 58.5797   1
  -8  -9   9 286.219 57.6743   1
   8   9  -9 190.235 54.4924   1
   8   9   9 247.305 52.8898   2
  -8  -9  -9 268.863 61.4636   1
  -9   8   9 334.364 77.4087   1
  -9   8  11 166.813 89.8969   1
   8   9 -11-42.4069 58.0629   1
   8   9  11 140.163 58.6390   2
  -8  -9 -11 88.7069 59.3774   1
   9  -8 -11 88.6765 73.1740   1
  -7  -9   0 1693.02 81.2303   1
  -9   7   0 1004.49 39.9794   1
  -7  -9   2 3420.81 85.0860   1
   7   9   2 2653.01 41.0140   2
  -9   7  -2 3250.45 41.1417   1
   9  -7  -2 2255.88 46.9233   1
  -9   7  -2 3253.04 43.7910   1
  -7  -9  -2 2495.22 74.6282   1
   7   9  -2 3304.84 72.1562   1
   7   9   2 2785.65 65.8691   1
  -9   7   2 2475.54 70.9351   1
   7   9  -4 785.559 52.8844   1
   7   9   4 565.824 41.9870   1
  -7  -9   4 604.765 53.9768   1
   7   9   4 600.597 33.1060   2
   9  -7  -4 799.941 44.3959   1
  -7  -9  -4 610.290 48.2427   1
  -9   7   4 788.247 56.0716   1
   7   9  -6 1101.74 60.8439   1
  -9   7   6 370.505 56.6477   1
   7   9   6 554.731 43.1392   2
   9  -7  -6 496.591 48.2295   1
  -9   7  -6 498.936 19.8502   1
   7   9   6 477.836 39.9862   1
  -7  -9   6 1335.01 67.5774   1
  -7  -9  -6 702.108 59.2272   1
   7   9  -8 1470.07 71.6041   1
  -7  -9   8 1625.02 82.3141   1
   7   9   8 1636.99 65.7988   2
   9  -7  -8 2104.52 86.8626   1
  -9   7   8 2075.06 99.1690   1
  -7  -9  -8 1824.81 81.9375   1
   7   9 -10 61.8823 53.4187   1
   7   9  10-41.6861 52.0640   2
   9  -7 -10 80.5701 52.9949   1
  -9   7  10 75.2474 74.8650   1
  -7  -9 -10-1.56943 57.6300   1
   7   9 -12 647.590 76.0162   1
   9  -7 -12 904.560 79.3222   1
   7   9  12 750.183 78.2807   2
  -7  -9 -12 884.804 82.0932   1
  -6  -9  -1 463.611 47.9512   1
  -6  -9   1 289.211 44.0802   1
   6   9   1 353.256 15.1253   2
  -9   6   1 399.585 35.5157   1
  -9   6  -1 377.617 20.8204   1
   6   9   1 358.812 35.2595   1
   6   9  -1 281.239 33.4375   1
  -9   6  -1 379.664 22.5268   1
   6   9  -3 346.161 36.5514   1
   6   9   3 285.217 33.6011   1
  -6  -9   3 228.982 44.0527   1
   6   9   3 348.757 23.5688   2
   9  -6  -3 364.808 32.4173   1
  -6  -9  -3 393.087 45.3254   1
  -9   6   3 317.000 43.0155   1
  -9   6   5 1895.91 76.5577   1
   6   9  -5 1598.88 65.0832   1
  -6  -9   5 1496.88 71.4154   1
  -6  -9  -5 1549.52 59.2082   1
   6   9   5 1916.75 57.5835   2
  -6  -9   5 1563.40 37.5257   2
   9  -6  -5 1915.40 62.9310   1
   6   9   5 1765.14 61.4888   1
  -6  -9   7 231.243 50.2492   1
   6   9  -7 195.411 45.3812   1
   6   9   7 296.891 43.0359   1
   6   9   7 260.370 45.1501   2
   9  -6  -7 305.023 42.2312   1
  -9   6   7 202.927 63.8088   1
  -6  -9   7 213.503 28.7426   2
  -6  -9  -7 238.806 49.1488   1
  -9   6  -7 246.333 24.0293   1
   6   9  -9 754.091 68.1384   1
  -6  -9   9 644.429 59.1467   1
  -9   6   9 954.729 83.4545   1
   9  -6  -9 906.509 67.0912   1
   6   9   9 1070.81 65.0659   2
  -6  -9  -9 746.229 68.0370   1
   6   9  11-49.1123 64.1810   2
   6   9 -11 41.6810 60.5924   1
  -9   6  11 82.1261 79.7381   1
   9  -6 -11 122.635 58.1775   1
  -6  -9 -11 62.5904 59.1225   1
  -5  -9   0 721.199 46.6000   1
  -9   5   0 687.359 30.6103   1
  -9   5   0 702.940 26.8538   1
   5   9   0 770.030 42.6825   1
   5   9   2 86.7130 31.0415   1
   9  -5  -2 121.584 21.9146   1
  -5  -9  -2 55.8359 37.0650   1
   5   9   2 136.952 17.6287   2
  -9   5  -2 119.419 11.0598   1
  -9   5  -2 112.568 9.35325   1
  -9   5   2 127.305 27.9499   1
  -5  -9   2 128.090 34.5624   1
   5   9  -2 160.763 32.6745   1
   5   9  -4 624.270 46.4320   1
   5   9   4 848.658 35.8676   2
   9  -5  -4 838.993 48.3891   1
  -5  -9   4 648.657 50.2778   1
  -9   5   4 732.918 53.9336   1
   5   9   4 788.010 46.9687   1
  -5  -9  -4 776.761 56.7015   1
  -5  -9   4 691.085 24.2913   2
  -5  -9  -6 26.2497 42.4391   1
  -5  -9   6 13.7002 41.0633   1
   5   9  -6 22.0178 41.4095   1
   9  -5  -6 116.722 38.6032   1
  -5  -9   6 48.6271 25.6820   2
   5   9   6 31.2284 30.8993   2
  -9   5   6 10.0112 51.2466   1
   5   9   6 16.9968 33.6868   1
  -9   5  -8 455.460 28.3662   1
  -5  -9   8 474.401 53.6875   1
  -9   5   8 505.662 71.8355   1
   9  -5  -8 532.995 59.8338   1
   5   9   8 486.972 49.6753   2
  -5  -9   8 562.773 40.3569   2
  -5  -9  -8 672.552 64.7713   1
   5   9  -8 565.510 56.0990   1
   5   9 -10 191.296 56.2590   1
  -5  -9  10 69.1599 36.4790   2
   9  -5 -10 74.5011 53.9779   1
  -9   5  10 147.489 68.1067   1
   5   9  10 99.8026 52.3312   2
  -5  -9 -10 77.4615 51.6292   1
  -9   5  12 96.8146 85.9374   1
   5   9 -12 72.2581 60.8550   1
   9  -5 -12 131.530 63.5934   1
  -5  -9 -12-6.19724 58.6123   1
   5   9  12 62.8742 66.8656   2
   4   9  -1 80.9122 31.1061   1
  -9   4   1 106.900 27.2019   1
  -9   4  -1 68.4767 16.1978   1
   4   9   1 77.5609 33.2335   1
  -4  -9  -1 59.9363 34.6470   1
  -9   4  -1 85.1089 15.1973   1
  -4  -9   1 34.4340 36.3017   1
  -4  -9   3-2.94958 37.0723   1
   4   9  -3 42.9574 34.3874   1
  -4  -9  -3-25.3211 35.3820   1
  -9   4   3 59.7277 34.7858   1
   9  -4  -3-10.4327 26.5310   1
   4   9   3 17.3153 30.5306   1
  -4  -9   5 70.6728 41.5232   1
  -4  -9  -5 88.9153 42.4193   1
   4   9  -5 88.3642 37.2527   1
  -9   4   5 64.2962 46.3290   1
   9  -4  -5 177.543 36.2129   1
  -4  -9   5 116.073 21.4940   2
   4   9   5 178.684 35.5901   1
   4   9  -7 37.3675 41.8568   1
  -9   4  -7-5.77891 16.3203   1
   9  -4  -7 1.54276 40.8398   1
  -4  -9   7-68.1453 42.5194   1
  -9   4   7 18.6401 54.8751   1
  -4  -9   7 9.76128 27.0379   2
   4   9   7-58.9429 34.6359   1
  -4  -9  -7 10.0416 46.2244   1
  -9   4   9 55.2711 62.6004   1
   4   9  -9 62.0120 47.5003   1
  -9   4  -9 1.78151 28.8933   1
  -4  -9   9-9.52916 37.1950   2
   4   9   9-72.7583 48.0874   2
   9  -4  -9 16.4712 52.4818   1
  -4  -9  -9-2.05311 48.0877   1
   4   9 -11 100.762 54.9022   1
  -9   4 -11 25.1589 34.0889   1
  -4  -9  11-35.5878 41.8779   2
  -9   4  11 0.94083 70.4230   1
   4   9  11 25.2679 55.9410   2
  -4  -9 -11 63.9446 63.0920   1
   9  -4 -11-58.7529 59.4028   1
  -9   3   0 17142.0 105.530   1
   3   9   0 17295.7 151.842   1
  -9   3   2 8.89700 30.4492   1
   3   9  -2 24.3672 31.0810   1
   3   9   2-7.67477 30.1901   1
  -3  -9  -2-6.17071 35.4565   1
  -3  -9   2 10.5644 31.4289   1
   9  -3  -2 26.6197 22.3538   1
   3   9  -4 8886.66 115.629   1
  -9   3   4 8999.38 119.142   1
   9  -3  -4 10026.5 113.574   1
  -3  -9   4 7805.86 118.090   1
  -3  -9  -4 9631.75 123.595   1
   3   9   4 8780.91 114.270   1
  -3  -9  -6 54.3415 42.1779   1
   3   9  -6 26.8814 38.0105   1
  -9   3  -6 3.11852 11.2435   1
  -9   3   6-52.6405 48.5886   1
  -3  -9   6-0.89907 23.9030   2
   9  -3  -6 33.6014 36.7448   1
   3   9   6 28.1707 33.6972   1
  -3  -9   6-5.68808 35.2511   1
   3   9  -8 2265.17 80.3758   1
  -9   3  -8 2314.53 48.5416   1
  -3  -9   8 2000.80 67.3194   1
   9  -3  -8 2680.02 86.5689   1
  -3  -9   8 2403.71 64.1890   2
   3   9   8 2742.69 81.3894   1
  -9   3   8 2208.43 99.9967   1
  -3  -9  -8 2251.18 84.5719   1
  -9   3  10 103.653 69.5058   1
   3   9 -10 59.0482 53.1469   1
  -9   3 -10 79.7391 32.3654   1
   3   9  10 8.18226 53.6206   2
  -3  -9  10-46.6402 39.0177   2
   9  -3 -10 38.8800 52.6924   1
  -3  -9 -10-30.1551 55.3822   1
   9  -3  12 335.589 66.3577   2
  -9   3 -12 283.947 45.5880   1
   3   9 -12 144.399 62.2391   1
   3   9  12 222.484 70.2288   2
  -3  -9  12 266.276 51.4596   2
  -9   3  12 364.107 85.5258   1
  -3  -9 -12 311.132 69.1184   1
   9  -3 -12 243.042 67.4852   1
  -2  -9  -1 9430.12 117.563   1
   2   9  -1 10931.1 124.530   1
  -9   2  -1 10779.9 70.5732   1
  -2  -9   1 10294.7 126.692   1
  -9   2  -1 11476.0 67.1189   1
   9  -2  -1 10194.5 71.3278   1
   2   9   1 10500.2 125.971   1
  -9   2   1 11177.4 108.713   1
  -9   2   3 3273.72 78.8473   1
  -2  -9   3 5729.22 96.3710   1
  -2  -9  -3 3274.64 79.6909   1
   2   9   3 3511.85 75.6445   1
   2   9  -3 5524.90 89.8605   1
  -2  -9  -5 13537.6 158.085   1
   2   9  -5 15300.5 147.334   1
   9  -2  -5 13669.1 138.169   1
  -9   2   5 15104.2 163.146   1
   2   9   5 13385.5 147.480   1
  -2  -9   5 16657.1 162.727   1
  -9   2  -7 341.802 26.9331   1
  -2  -9   7 172.503 36.1487   1
  -9   2   7 85.7668 57.4223   1
   9  -2  -7 227.138 45.9625   1
  -2  -9   7 244.188 33.5586   2
   2   9  -7 182.713 46.2262   1
   2   9   7 94.8188 42.3071   1
  -2  -9  -7 72.4628 47.4501   1
  -9   2  -9 8803.52 106.047   1
   9  -2  -9 8529.85 145.134   1
  -9   2   9 8535.73 172.350   1
   9  -2   9 8880.76 149.429   2
  -2  -9  -9 8468.00 150.861   1
   2   9   9 9518.24 148.925   1
   2   9  -9 9325.03 145.271   1
   9  -2  11 71.5855 58.4778   2
  -2  -9 -11 76.7131 58.2981   1
  -9   2  11 70.2274 70.0485   1
   2   9 -11 87.0797 55.6829   1
  -9   2 -11 27.1398 39.2941   1
  -2  -9  11 191.469 46.5915   2
   9  -2 -11 99.4138 58.4906   1
   2   9 -13 2612.35 108.534   1
  -9   2 -13 2496.10 81.9903   1
   9  -2 -13 2797.90 111.197   1
   2   9  13 3165.23 121.880   2
  -2  -9  13 2644.29 94.8072   2
  -2  -9 -13 3000.14 113.458   1
   9  -2  13 2569.47 110.667   2
  -1  -9   0 3743.27 77.6013   1
  -9   1   0 3623.76 49.8023   1
  -9   1   0 3793.09 60.0149   1
   1   9   0 3819.44 73.1142   1
  -9   1  -2 59.9101 11.4440   1
  -1  -9  -2 74.2360 33.3764   1
  -9   1  -2 60.9699 10.4943   1
   1   9  -2 64.6612 30.7269   1
  -9   1   2 11.2710 28.7878   1
   9  -1  -2 42.4307 21.5875   1
  -1  -9   2 21.3998 30.7691   1
   1   9   2 100.120 31.9552   1
  -9   1   4 2720.34 80.5432   1
   9  -1  -4 2752.39 65.8660   1
   1   9   4 2763.13 74.0002   1
  -1  -9   4 2546.53 65.8068   1
  -1  -9   6 118.878 29.6432   1
   1   9  -6 97.6903 33.4644   1
  -9   1  -6 159.595 18.4034   1
   9  -1  -6 156.207 42.4772   1
  -1  -9  -6 190.001 50.3751   1
   1   9   6 196.137 43.9790   1
  -1  -9   6 146.986 28.5541   2
  -9   1   6 128.424 47.4270   1
  -1  -9  -8 316.072 54.7168   1
   1   9  -8 316.030 48.6948   1
  -9   1  -8 353.552 29.7679   1
   9  -1  -8 348.297 57.7040   1
  -9   1   8 284.060 62.8765   1
  -1  -9   8 358.134 40.6742   2
   9  -1   8 276.743 51.2263   2
   1   9   8 329.359 51.3841   1
  -9   1  10 813.829 82.3626   1
   1   9 -10 648.263 56.4902   1
  -9   1 -10 823.367 51.3493   1
   9  -1 -10 858.346 73.9956   1
  -1  -9  10 701.890 52.9948   2
   9  -1  10 761.988 69.3026   2
  -1  -9 -10 633.367 64.0715   1
  -1  -9  12-24.8641 48.2357   2
   1   9 -12 57.1745 56.8911   1
  -9   1  12-21.3839 69.4326   1
   9  -1 -12-12.4822 59.2287   1
  -9   1 -12 21.7474 41.9499   1
   9  -1  12-126.364 65.3313   2
  -1  -9 -12-15.6660 59.7652   1
   9   0  -1 494.822 24.7555   1
   0  -9  -1 478.119 37.8622   1
  -9   0  -1 440.550 20.7040   1
  -9   0  -1 523.318 24.9712   1
   0  -9   1 403.460 39.2722   1
  -9   0   1 490.595 33.0925   1
   0   9   1 503.719 37.7543   1
   0   9  -1 482.681 38.4273   1
  -9   0   3 505.392 43.4734   1
   9   0  -3 461.425 32.6437   1
   0  -9   3 358.398 32.8453   1
   0   9   3 512.120 43.7491   1
   0  -9  -3 613.846 45.5512   1
  -9   0  -3 455.276 17.6238   1
  -9   0  -3 542.872 19.2157   1
   0   9  -3 448.493 33.7126   1
   0  -9   5 1997.18 51.6593   1
  -9   0   5 1813.03 72.6054   1
   9   0  -5 2310.80 65.4674   1
   0   9   5 2226.31 74.5253   1
  -9   0  -5 2205.39 35.0070   1
   0   9  -5 2071.33 58.1951   1
   0  -9  -5 2382.73 73.9876   1
  -9   0  -5 1954.52 32.8842   1
   0   9  -7 1670.03 60.1155   1
   0  -9  -7 2225.91 77.3360   1
   9   0   7 2097.04 71.3427   2
   0   9   7 2331.12 81.8565   1
   9   0  -7 2185.58 76.8220   1
  -9   0  -7 2035.24 44.7975   1
  -9   0   7 1871.98 76.1531   1
   0  -9   7 1975.82 62.1601   2
   0   9  -9 1124.03 62.8524   1
  -9   0   9 1281.09 83.1252   1
   9   0  -9 1451.99 74.8937   1
  -9   0  -9 1285.85 51.2028   1
   9   0   9 1251.25 70.5571   2
   0  -9   9 1250.71 59.4586   2
   0   9   9 1362.62 75.7384   1
   0  -9  -9 1402.90 77.5887   1
  -9   0  11 531.406 81.7842   1
   0   9 -11 466.353 65.1632   1
   9   0 -11 536.993 76.0005   1
  -9   0 -11 465.790 48.1820   1
   9   0  11 456.366 67.3533   2
   0  -9 -11 378.934 60.6550   1
   0  -9  11 492.859 55.5607   2
   9   0  13 106.565 65.8545   2
   0   9 -13 63.6115 60.4675   1
   9   0 -13 110.726 70.9416   1
   0  -9  13 36.5871 53.4991   2
  -9   0 -13 44.2646 50.3188   1
   0  -9 -13 159.244 62.6476   1
   1  -9   0 404.849 35.6518   1
  -9  -1   0 357.802 28.1160   1
   9   1   0 349.359 17.2347   1
  -1   9   0 320.277 33.5261   1
   1  -9  -2 7.34364 28.4896   1
  -9  -1  -2 11.6092 14.9493   1
  -1   9  -2 43.7770 28.2100   1
  -9  -1  -2 12.8757 16.2763   1
  -9  -1   2 14.5568 31.0572   1
   9   1  -2 25.5277 20.0523   1
  -1   9   2 49.4655 36.5773   1
   1  -9   2 8.20046 24.3918   1
   1  -9  -4 136.127 39.0159   1
  -9  -1  -4 76.7068 17.1598   1
  -1   9   4 75.2095 38.6974   1
   9   1  -4 117.994 28.6333   1
  -9  -1   4 95.8440 37.0804   1
  -9  -1  -4 92.4328 17.9478   1
  -1   9  -4 167.971 32.2086   1
   1  -9   4 108.603 23.1574   1
   1  -9   6 4.53859 15.7044   1
  -9  -1   6-19.8695 42.7372   1
  -1   9   6 35.6141 42.4999   1
   9   1  -6 12.3223 34.3824   1
   9   1   6 48.7375 34.3818   2
  -9  -1  -6 27.6742 21.7017   1
   1  -9  -6 21.1961 44.5309   1
  -1   9  -6 64.9749 33.3031   1
   9   1   8 19.7539 46.6424   2
  -1   9  -8 116.332 42.5561   1
   1  -9   8 47.4113 39.0559   2
   9   1  -8 85.7583 46.3661   1
  -9  -1  -8 79.2936 29.5314   1
  -1   9   8 139.223 51.9587   1
   1  -9  -8 108.843 51.3593   1
  -9  -1   8 80.8258 53.8930   1
  -1   9 -10 72.1518 46.3257   1
  -1   9  10 59.3662 51.8202   1
  -9  -1 -10 70.6314 38.0151   1
   9   1 -10 129.650 58.3214   1
  -9  -1  10 130.384 65.4447   1
   9   1  10 72.0612 53.3247   2
   1  -9  10 72.4643 42.9034   2
   1  -9 -10 43.5860 52.0422   1
  -9  -1  12 108.069 64.7818   1
  -1   9 -12 116.429 55.8164   1
  -9  -1 -12 204.695 48.8886   1
   9   1  12 255.678 66.3233   2
   1  -9  12 103.316 52.4287   2
   1  -9 -12 155.022 63.9983   1
   9   1 -12 98.4733 61.4988   1
  -2   9   1 25.6757 31.9744   1
   2  -9  -1 7.16522 27.5220   1
   9   2  -1 12.0105 17.7332   1
  -9  -2  -1 24.2919 21.6775   1
  -9  -2   1-2.15900 27.1570   1
   2  -9   1 12.8273 28.2838   1
  -2   9  -1 9.16349 26.3724   1
  -9  -2  -3 1649.45 37.5894   1
   9   2  -3 1543.16 47.1467   1
  -2   9   3 1689.87 58.9908   1
   2  -9   3 1536.62 40.4761   1
   2  -9  -3 1806.66 55.4698   1
  -9  -2  -3 1530.43 34.9859   1
  -9  -2   3 1531.57 62.4830   1
  -2   9  -3 1486.76 46.7316   1
   2  -9  -5 785.138 55.1273   1
   9   2  -5 583.324 44.7342   1
  -2   9   5 652.059 48.8360   1
   2  -9   5 507.809 20.2836   1
  -9  -2  -5 642.870 28.5448   1
  -2   9  -5 614.255 37.6473   1
  -9  -2   5 713.760 56.8831   1
  -2   9  -7 1828.72 57.8656   1
   9   2  -7 2208.77 76.5117   1
  -9  -2   7 1827.96 76.8546   1
  -9  -2  -7 1788.34 43.4266   1
   9   2   7 2254.42 70.4004   2
   2  -9  -7 2358.91 84.2140   1
  -2   9   7 2098.86 74.6188   1
  -9  -2   9 221.637 69.1922   1
  -2   9  -9 79.9238 40.4338   1
   9   2  -9 189.035 50.2161   1
   9   2   9 175.856 53.6774   2
   2  -9   9 102.060 44.1956   2
  -9  -2  -9 154.449 38.9436   1
  -2   9   9 199.202 55.0425   1
   2  -9  -9 49.9883 51.9329   1
  -2   9 -11 595.411 65.2848   1
   9   2 -11 526.341 66.9641   1
  -9  -2 -11 437.012 51.1309   1
   9   2  11 424.482 65.9376   2
   2  -9 -11 561.992 70.3338   1
  -2   9  11 544.526 69.2680   1
  -9  -2  11 452.152 72.9398   1
   2  -9  11 601.998 65.9725   2
  -9  -2 -13 74.8525 50.8942   1
   2  -9  13 88.0944 64.1519   2
  -2   9 -13 58.9979 62.9304   1
   9   2  13 104.590 67.9378   2
   9   2 -13 9.92089 61.0561   1
   2  -9 -13-79.7285 68.2343   1
   3  -9   0 21362.7 158.623   1
  -9  -3   0 21536.1 161.550   1
   9   3  -2 27401.6 161.669   1
   3  -9  -2 27238.8 185.719   1
  -9  -3  -2 27185.6 152.012   1
   3  -9   2 27336.2 142.095   1
  -9  -3   2 26944.5 199.685   1
  -3   9   2 27679.9 188.000   1
   9   3  -4 8949.40 113.840   1
  -9  -3  -4 9319.84 90.5850   1
  -3   9   4 9852.87 131.762   1
   3  -9  -4 10754.4 136.497   1
  -9  -3   4 8392.94 133.038   1
  -3   9  -4 10976.7 110.914   1
  -9  -3   6 10928.0 168.927   1
   9   3   6 10771.3 129.885   2
   9   3  -6 10726.2 132.823   1
  -3   9  -6 11486.2 110.748   1
  -9  -3  -6 10491.4 108.201   1
   3  -9  -6 10603.2 148.529   1
  -3   9   6 9878.58 146.057   1
  -3   9  -8 7485.16 109.010   1
   9   3  -8 7535.60 135.900   1
  -9  -3   8 6595.09 141.060   1
  -9  -3  -8 7489.79 107.890   1
   9   3   8 7195.01 125.078   2
   3  -9  -8 8333.28 142.840   1
  -3   9   8 7672.06 141.877   1
  -3   9 -10 1028.64 62.6488   1
   9   3 -10 826.009 67.0504   1
  -9  -3 -10 848.231 54.2693   1
   3  -9 -10 924.490 73.7045   1
  -9  -3  10 852.136 77.8079   1
  -3   9  10 818.764 70.6568   1
   9   3  10 860.530 68.1305   2
   3  -9  12 3260.24 106.286   2
  -3   9 -12 3107.13 105.620   1
   9   3 -12 3027.78 112.989   1
  -9  -3 -12 2964.95 92.8692   1
   3  -9 -12 3446.31 118.251   1
   9   3  12 2752.40 108.427   2
  -9  -4  -1 190.205 27.2359   1
   9   4   1 167.445 17.6259   1
   9   4  -1 191.730 24.7389   1
   4  -9   1 191.926 23.0867   1
  -4   9  -1 208.709 30.3081   1
  -4   9   1 171.165 29.6756   1
  -9  -4   1 151.337 31.1101   1
   4  -9  -1 189.974 28.8102   1
   4  -9  -3-44.1830 31.3115   1
  -4   9   3-37.1912 37.0565   1
  -9  -4  -3 3.05820 22.4059   1
  -9  -4   3-19.5898 36.2670   1
   9   4  -3-13.8007 25.1504   1
  -4   9  -3 5.48156 22.8173   1
   9   4   5 643.381 43.4549   2
  -4   9   5 474.063 51.4541   1
   4  -9  -5 558.244 53.8064   1
  -9  -4  -5 476.957 34.7086   1
   9   4  -5 412.824 41.7837   1
  -4   9  -5 385.965 31.1306   1
  -9  -4   5 372.643 51.9491   1
  -4   9  -7 197.420 34.0627   1
   4  -9  -7 300.136 52.8255   1
   9   4   7 255.543 43.1648   2
  -9  -4   7 105.131 51.2456   1
   9   4  -7 262.051 46.7722   1
  -9  -4  -7 273.340 38.6757   1
  -4   9   7 212.852 53.8492   1
  -4   9   9 111.797 54.6252   1
  -4   9  -9 164.703 42.8152   1
  -9  -4   9 104.616 53.8652   1
   9   4  -9 163.415 49.9850   1
   9   4   9 217.296 50.1049   2
  -9  -4  -9 129.825 41.5682   1
   4  -9  -9 152.994 51.4611   1
  -4   9 -11 96.2469 51.0361   1
  -9  -4  11 86.6451 63.2444   1
   9   4 -11 107.184 54.7713   1
   9   4  11 85.1307 57.5898   2
  -4   9  11 98.5509 59.0946   1
  -9  -4 -11 103.992 49.4150   1
   4  -9 -11 69.5181 59.9617   1
   9   5   0 298.328 23.1943   1
  -5   9   0 379.989 34.0399   1
   5  -9   0 411.862 29.6133   1
  -9  -5   0 316.789 35.2868   1
  -9  -5   2 11.3551 37.8496   1
   9   5   2 6.14558 14.9960   1
   5  -9  -2 66.1974 26.2708   1
   9   5  -2 37.3319 24.2814   1
  -9  -5  -2 55.2807 27.0782   1
  -5   9  -2 26.3575 26.3530   1
  -5   9   2 64.7125 36.5270   1
   5  -9  -4 18.1310 34.9806   1
  -9  -5  -4 54.0808 29.1134   1
  -5   9   4 32.0403 40.7315   1
   9   5   4 18.3213 13.0253   1
   9   5  -4 34.0957 31.4026   1
  -9  -5   4 27.0855 43.2995   1
  -5   9  -4 80.6227 24.0269   1
   9   5  -6 285.611 44.7587   1
  -5   9  -6 256.918 29.4453   1
   9   5   6 288.906 39.0740   2
   5  -9  -6 289.059 46.5363   1
  -5   9   6 245.530 52.8955   1
  -9  -5  -6 252.069 37.2107   1
  -9  -5   6 262.390 47.0017   1
  -5   9  -8-5.42803 30.8816   1
  -9  -5   8 22.3020 47.9960   1
   9   5  -8 69.1881 46.4777   1
   9   5   8 0.11748 40.8625   2
  -5   9   8 68.9691 53.1371   1
   5  -9  -8 2.21349 47.0684   1
  -9  -5  -8 4.37528 39.4948   1
  -9  -5  10 116.736 60.0132   1
   9   5 -10 128.528 53.4306   1
   9   5  10 59.4032 52.9855   2
  -5   9  10 122.476 63.5324   1
  -9  -5 -10 204.260 48.2992   1
  -5   9 -10 134.383 42.8728   1
   5  -9 -10 287.229 62.3562   1
  -5   9  12 20.6106 63.6444   1
  -5   9 -12 12.1396 49.6606   1
   9   5 -12 25.2497 58.1529   1
   9   5  12 131.858 65.7295   2
   5  -9 -12 87.1319 67.1997   1
  -9  -5 -12-2.53467 50.9239   1
   6  -9  -1 638.704 32.0503   1
   9   6   1 563.862 30.3558   1
  -9  -6  -1 546.151 39.4836   1
  -9  -6   1 622.395 43.9832   1
  -6   9  -1 576.456 34.6088   1
   9   6  -1 601.939 32.8891   1
   9   6  -3 1005.73 45.9680   1
   6  -9  -3 977.763 45.0633   1
  -6   9   3 1060.88 59.0124   1
  -6   9  -3 1030.35 38.8843   1
  -9  -6   3 919.918 57.1359   1
   9   6   3 810.370 28.1340   1
  -6   9  -3 1003.52 39.4819   1
  -9  -6  -3 1150.03 48.0772   1
   9   6  -5 70.6722 37.5844   1
  -9  -6   5 18.7886 45.3767   1
  -6   9   5 159.388 52.8959   1
   9   6   5 85.4939 29.2964   2
  -9  -6  -5-12.4971 34.1030   1
   6  -9  -5 1.50454 40.1017   1
  -6   9  -5 60.0135 21.5442   1
  -9  -6   7 143.815 55.3001   1
   9   6  -7 303.620 47.7464   1
   9   6   7 287.572 42.6497   2
  -9  -6  -7 279.078 44.1083   1
   6  -9  -7 339.293 54.2029   1
  -6   9  -7 233.825 28.1975   1
  -6   9  -9 83.8309 39.5451   1
   9   6  -9-44.4777 53.5031   1
  -9  -6   9-30.6268 49.4705   1
   6  -9  -9 12.3034 49.2986   1
   9   6   9 39.1019 48.9080   2
  -6   9   9 7.97915 63.1587   1
  -9  -6  -9 36.4676 42.3893   1
  -6   9 -11-18.4601 46.3298   1
  -9  -6  11-29.0037 62.3548   1
   9   6 -11-29.4787 58.2689   1
  -9  -6  11-37.6065 47.2550   2
   9   6  11 63.6789 59.1360   2
   6  -9 -11 31.0283 60.8393   1
  -9  -6 -11 40.9720 51.4367   1
  -6   9  11-17.7322 70.8492   1
   9   7   0 503.402 34.5163   1
  -7   9   0 610.058 38.2294   1
  -9  -7   0 560.676 42.8460   1
  -7   9   2 7693.93 110.438   1
   9   7  -2 6491.54 89.3096   1
  -9  -7  -2 7162.09 100.407   1
   9   7   2 7174.47 83.9812   1
  -9  -7   2 6421.54 112.114   1
  -7   9  -2 7894.45 84.1517   1
   7  -9  -2 7739.02 88.6871   1
  -7   9   4 196.766 48.0775   1
   9   7   4 185.830 22.2725   1
   7  -9  -4 197.464 37.6029   1
  -9  -7   4 104.336 43.4999   1
  -7   9  -4 194.215 24.3107   1
  -9  -7  -4 181.044 33.9961   1
   9   7  -4 171.780 34.7470   1
  -7   9   6 3364.13 108.351   1
   9   7  -6 2640.82 81.1995   1
   9   7   6 3063.26 73.9322   2
   7  -9  -6 3120.09 87.0987   1
  -9  -7  -6 3233.41 85.3663   1
  -7   9  -6 2613.90 53.4492   1
  -9  -7   6 2633.28 94.5239   1
  -7   9  -8-9.29400 29.2330   1
  -9  -7   8-23.5848 54.7889   1
   9   7   8 65.0661 43.5307   2
  -9  -7  -8-19.6969 44.6774   1
   9   7  -8-1.41176 47.3695   1
  -7   9   8 11.6205 59.1657   1
   7  -9  -8 92.6362 48.6997   1
   9   7 -10 614.851 67.2733   1
  -7   9 -10 683.160 52.8665   1
  -9  -7  10 605.090 69.0301   1
  -9  -7 -10 776.531 66.9412   1
   7  -9 -10 1039.41 79.6432   1
   9   7  10 915.529 73.2354   2
  -7   9  10 1010.38 93.9334   1
  -9  -7 -12-18.6949 54.4871   1
  -7   9 -12-25.4297 45.1816   1
   9   7 -12 24.0730 62.7964   1
   9   7  12 114.817 63.6193   2
  -7   9  12-1.11220 81.2224   1
   7  -9 -12 96.6685 67.0252   1
  -8   9   1 85.6798 34.5081   1
   9   8   1 19.8630 24.2538   1
   9   8  -1 33.1685 28.3240   1
   8  -9  -1 42.2301 20.1467   1
  -9  -8  -1 69.3063 38.4252   1
  -9  -8   1 39.8250 37.6654   1
   8  -9  -3 9.12364 23.3292   1
  -9  -8   3 27.5655 43.1879   1
  -8   9   3 55.4058 38.4842   1
   9   8   3 32.4203 24.2925   1
   9   8  -3 39.1845 28.5729   1
  -9  -8  -3 41.9294 36.5356   1
  -8   9  -3 9.25927 20.0078   1
  -8   9  -5 403.865 23.0775   1
   9   8   5 461.901 38.1060   2
   8  -9  -5 460.393 49.3031   1
  -8   9   5 340.014 60.5856   1
  -9  -8  -5 563.960 51.7747   1
  -9  -8  -7 133.896 46.2258   1
  -8   9  -7 72.2052 24.3448   1
  -8   9   7 125.616 63.8216   1
   9   8  -7 93.4406 45.7951   1
   9   8   7 85.1754 38.6623   2
  -9  -8   7 98.5739 46.2664   1
   8  -9  -7 127.493 49.8731   1
  -9  -8   9 883.947 71.1291   1
   9   8  -9 959.475 72.3569   1
  -8   9  -9 1070.84 54.5432   1
   9   8   9 1001.04 67.1440   2
   8  -9  -9 1001.52 70.7036   1
  -9  -8  -9 938.603 65.4647   1
  -9  -8 -11 57.3964 62.5655   1
   9   8 -11 85.9730 58.8029   1
   9   8  11 33.5406 60.4967   2
  -8   9  11 60.2835 79.5067   1
   8  -9 -11-126.570 67.2685   1
   9   9   0 1404.23 51.8220   1
  -9   9   0 1379.80 46.8493   1
   9   9   2 413.082 35.3003   1
   9   9  -2 402.907 41.1521   1
  -9  -9  -2 495.099 47.6326   1
  -9  -9   2 480.925 50.3866   1
  -9   9   2 412.378 43.2386   1
   9  -9  -2 363.068 27.4251   1
  -9   9  -2 386.803 28.2625   1
   9   9   4 665.037 35.7826   2
   9   9  -4 508.534 41.9765   1
  -9   9   4 712.512 59.1841   1
   9   9   4 588.989 37.3875   1
  -9  -9   4 480.995 54.6579   1
  -9   9  -4 671.467 26.5260   1
   9  -9  -4 675.594 43.5294   1
  -9  -9  -4 690.421 55.3562   1
  -9  -9  -6 15.4103 44.9125   1
  -9   9   6 131.275 62.6420   1
   9   9  -6 65.4430 43.3007   1
   9   9   6 161.777 37.3879   2
  -9  -9   6 51.8841 51.7876   1
   9  -9  -6 51.2824 43.2466   1
  -9   9  -6 49.2616 20.1273   1
  -9  -9   8 6.50465 56.0601   1
  -9  -9  -8 50.2683 51.1046   1
  -9   9   8 79.7645 69.2777   1
   9   9  -8-64.1264 51.3060   1
   9   9   8 9.90724 44.9061   2
   9  -9  -8 5.87761 49.9541   1
  -9  -9 -10 2.81616 57.0939   1
   9   9 -10 58.4140 57.3023   1
  -9  -9  10-2.49969 58.7535   1
   9   9  10 58.7594 55.9638   2
   9  -9 -10 87.3054 55.9473   1
   9  10   1 461.006 40.3917   1
   9  10  -1 457.984 40.9929   1
  -9 -10  -1 597.903 54.1062   1
  -9 -10   1 504.704 53.8610   1
 -10   9   1 621.532 41.1603   1
 -10   9  -1 523.313 31.9991   1
  -9 -10  -3 1046.37 58.5117   1
   9  10  -3 1017.01 55.4781   1
 -10   9   3 1040.35 58.4416   1
   9  10   3 1061.58 47.9714   1
 -10   9  -3 1038.16 33.2561   1
  10  -9  -5 151.032 40.1988   1
 -10   9  -5 97.6075 20.3725   1
  -9 -10  -5 86.4595 45.5026   1
   9  10  -5 53.6059 40.7332   1
 -10   9   5 170.204 59.7621   1
   9  10   5 65.0641 29.2908   2
  -9 -10   5 120.791 50.0475   1
   9  10  -7 662.202 55.6089   1
  -9 -10   7 628.342 66.6066   1
  -9 -10  -7 752.234 62.8806   1
   9  10   7 931.493 55.2799   2
  10  -9  -7 964.994 65.2241   1
 -10   9   7 1072.50 82.6902   1
  -9 -10  -9 74.4985 60.0634   1
  -9 -10   9-1.57995 60.4380   1
   9  10  -9-56.8461 56.9944   1
   9  10   9 35.9075 49.5271   2
 -10   9   9-77.0627 78.0902   1
  10  -9  -9 126.021 53.1970   1
  -9 -10 -11 87.9930 61.9951   1
   9  10 -11 214.864 63.4179   1
   9  10  11 295.944 66.4234   2
  10  -9 -11 221.675 61.6280   1
   8  10   0 825.022 47.1233   1
 -10   8   0 894.874 38.7676   1
  -8 -10   0 872.819 55.0420   1
   8  10  -2-15.2281 34.7728   1
  10  -8  -2 27.5984 17.9337   1
  -8 -10  -2-16.9302 38.9783   1
 -10   8  -2 34.6880 19.2832   1
  -8 -10   2 1.27750 41.0228   1
 -10   8   2-29.9807 37.3203   1
   8  10  -4 521.278 50.6002   1
 -10   8   4 539.452 54.6240   1
 -10   8  -4 517.639 20.7670   1
   8  10   4 561.064 32.1454   2
  10  -8  -4 559.106 39.4315   1
   8  10   4 545.041 42.5237   1
  -8 -10  -4 542.283 53.3815   1
   8  10  -6 76.7823 43.9337   1
 -10   8   6 135.422 59.8543   1
  -8 -10   6 152.098 49.7037   1
   8  10   6 191.052 35.6795   2
  10  -8  -6 205.078 45.6478   1
  -8 -10  -6 187.021 52.9672   1
 -10   8   8 166.908 70.4710   1
  -8 -10  -8 171.199 55.9881   1
  -8 -10   8 254.795 60.3785   1
   8  10  -8 257.464 54.6705   1
   8  10   8 196.767 48.1384   2
  10  -8  -8 276.020 53.1736   1
  -8 -10 -10 46.8234 57.3533   1
   8  10 -10 8.67425 50.7032   1
  10  -8 -10 58.4925 56.4672   1
   8  10  10-110.236 59.1755   2
 -10   8  10 116.355 81.9576   1
 -10   7  -1-20.0019 21.1517   1
   7  10  -1-29.6354 36.0617   1
   7  10   1 1.90778 31.0272   1
 -10   7   1-33.2859 29.1463   1
  -7 -10  -1-10.5593 36.7646   1
  -7 -10   1-0.51194 41.2891   1
  10  -7  -3-25.6598 24.6132   1
  -7 -10   3 31.8125 42.6342   1
   7  10   3 35.8609 34.3219   1
   7  10  -3-34.7787 37.0308   1
  -7 -10  -3-7.41301 42.6506   1
   7  10   3 30.0890 21.7124   2
 -10   7   3-68.4104 39.4263   1
 -10   7  -3 13.8121 11.9668   1
   7  10   5-13.8418 32.8913   1
 -10   7   5 31.7266 51.4048   1
  -7 -10  -5-11.2978 45.8628   1
   7  10  -5-76.8751 42.8536   1
  -7 -10   5 62.2468 49.4426   1
   7  10   5 3.78593 28.5743   2
  10  -7  -5-17.4017 34.5389   1
  -7 -10  -7 50.7937 50.5915   1
   7  10  -7 67.4642 43.3265   1
 -10   7   7-5.98967 61.3592   1
   7  10   7 108.299 40.8305   2
  -7 -10   7 34.0510 42.6762   1
  10  -7  -7 87.9405 44.2904   1
  -7 -10  -9 29.0473 53.1935   1
 -10   7   9 16.8925 67.2842   1
  -7 -10   9-63.9300 49.0757   1
   7  10  -9-44.5186 54.9321   1
   7  10   9-17.0422 49.2878   2
  10  -7  -9 2.29361 51.1502   1
   7  10 -11-23.8093 61.4913   1
  -7 -10 -11 66.2217 60.9730   1
 -10   7  11 147.865 88.7439   1
   7  10  11 107.678 62.0701   2
  10  -7 -11-62.8452 59.8404   1
   6  10   0 515.402 39.0476   1
  -6 -10   0 502.308 50.3052   1
 -10   6   0 512.206 28.5901   1
   6  10  -2 246.919 41.3601   1
  -6 -10  -2 294.337 43.4284   1
  -6 -10   2 175.871 39.1802   1
 -10   6  -2 263.804 16.1420   1
   6  10   2 294.339 18.7353   2
 -10   6   2 290.639 39.1864   1
   6  10   2 309.678 36.8548   1
  10  -6  -2 247.566 23.4589   1
 -10   6  -2 271.266 17.8419   1
   6  10  -4 450.369 44.0793   1
  -6 -10  -4 587.774 47.8907   1
   6  10   4 649.853 35.8674   2
  10  -6  -4 492.624 39.6166   1
  -6 -10   4 401.029 48.5201   1
 -10   6   4 586.885 54.8127   1
   6  10   4 479.278 45.8190   1
   6  10   6 15.8103 37.1419   1
  -6 -10  -6 39.8846 43.3298   1
   6  10  -6 62.8191 44.3620   1
   6  10   6 145.809 36.7469   2
  -6 -10   6 78.9189 44.1711   1
  10  -6  -6 124.538 43.2311   1
 -10   6   6 102.941 55.0112   1
  -6 -10  -8 116.340 51.3574   1
  -6 -10   8 64.2892 49.1657   1
 -10   6   8 124.954 67.0051   1
   6  10  -8 86.5492 46.8806   1
   6  10   8 163.441 47.1465   2
  10  -6  -8 125.640 42.1537   1
   6  10  10 47.3358 54.6190   2
   6  10 -10-50.8744 57.6882   1
  10  -6 -10 84.0728 52.9695   1
 -10   6  10 68.3819 75.0271   1
  -6 -10 -10-36.1510 57.8100   1
 -10   6  12-48.5178 86.8884   1
   6  10 -12-8.65133 62.6476   1
   6  10  12-11.7933 65.0399   2
  10  -6 -12 2.09647 59.6090   1
  -6 -10 -12-97.8850 66.4228   1
  -5 -10  -1 32887.8 249.684   1
 -10   5   1 32951.8 180.942   1
 -10   5  -1 31790.5 133.504   1
  -5 -10   1 32180.5 253.939   1
   5  10   1 31773.2 102.459   2
  10  -5  -1 32171.0 91.6092   1
   5  10   1 33291.8 209.101   1
   5  10  -1 32801.7 208.596   1
 -10   5  -1 32295.0 134.145   1
  -5 -10  -3 20375.4 194.239   1
   5  10   3 20269.6 127.515   2
  -5 -10   3 20122.8 203.384   1
  10  -5  -3 20618.2 150.509   1
   5  10   3 20464.0 182.513   1
  -5 -10  -5 19546.9 196.585   1
   5  10  -5 21543.0 190.117   1
  -5 -10   5 22295.1 210.878   1
   5  10   5 19953.9 156.003   2
  10  -5  -5 18950.5 168.133   1
 -10   5   5 20800.1 213.669   1
   5  10   5 19723.0 177.101   1
 -10   5   7 7912.68 157.985   1
   5  10  -7 9008.64 139.742   1
  10  -5  -7 7879.78 133.302   1
   5  10   7 8031.00 115.840   2
  -5 -10  -7 6865.14 130.609   1
   5  10   7 7713.95 124.181   1
  -5 -10  -9 6560.78 140.254   1
 -10   5   9 6691.91 165.181   1
  10  -5  -9 6883.93 135.420   1
   5  10   9 6913.71 123.146   2
   5  10 -11 956.065 77.0294   1
  -5 -10 -11 1231.63 85.2491   1
  10  -5 -11 1115.82 83.5412   1
 -10   5  11 1274.14 106.385   1
   5  10  11 1142.58 82.4989   2
 -10   4   0 794.634 33.5269   1
 -10   4   0 862.428 28.7030   1
   4  10   0 892.123 47.7215   1
 -10   4   2 1006.64 44.9589   1
 -10   4  -2 931.062 17.1117   1
  -4 -10   2 846.809 50.7075   1
 -10   4  -2 911.961 16.8356   1
  10  -4  -2 1053.84 31.6684   1
   4  10  -2 952.309 48.5978   1
   4  10   2 1104.81 51.6277   1
  -4 -10  -2 1130.75 55.8972   1
   4  10  -4 1311.33 57.4786   1
 -10   4   4 1150.89 53.5746   1
  10  -4  -4 1288.57 45.9406   1
  -4 -10   4 1157.51 59.8911   1
   4  10   4 1316.30 57.5346   1
  -4 -10  -4 1472.85 66.1514   1
  -4 -10  -6 60.7757 46.3101   1
  -4 -10   6 68.2004 42.1077   1
   4  10  -6-4.00732 42.8997   1
 -10   4   6 131.123 55.0304   1
  10  -4  -6 59.4540 36.5649   1
  -4 -10   6 69.9429 24.7196   2
   4  10   6 112.604 36.8431   1
   4  10  -8 935.699 62.1961   1
  -4 -10  -8 1090.53 71.0402   1
  -4 -10   8 837.452 57.1362   1
  10  -4  -8 1031.95 66.1321   1
  -4 -10   8 928.644 46.9309   2
 -10   4   8 1151.63 85.1108   1
   4  10   8 1044.03 58.1069   1
 -10   4  10-53.2427 68.3866   1
   4  10 -10 93.1522 57.3257   1
  10  -4 -10 14.0205 55.8490   1
   4  10  10 28.1907 52.7495   2
  -4 -10 -10 2.78250 57.9163   1
   4  10 -12 329.235 68.2730   1
  -4 -10 -12 300.744 68.0644   1
  10  -4 -12 394.783 67.4684   1
   4  10  12 447.720 75.4063   2
 -10   4  12 419.072 90.9472   1
  -3 -10  -1 2201.86 67.0944   1
  -3 -10   1 1983.85 67.8920   1
 -10   3  -1 1866.01 31.4658   1
   3  10  -1 1728.27 58.8857   1
 -10   3  -1 1858.24 35.0953   1
   3  10   1 2048.05 63.9999   1
 -10   3   1 1811.59 49.9394   1
 -10   3   3 8205.19 113.112   1
  10  -3  -3 8047.22 92.3355   1
  -3 -10   3 6912.27 115.154   1
   3  10  -3 7408.63 106.802   1
   3  10   3 7424.43 107.753   1
  -3 -10  -3 8195.84 118.240   1
  -3 -10  -5 20.3099 42.5727   1
   3  10  -5 32.8175 36.0754   1
 -10   3   5 53.4412 41.9413   1
  -3 -10   5-5.95097 40.9685   1
  10  -3  -5 50.3064 34.5499   1
   3  10   5 145.715 41.1805   1
   3  10   7 4189.23 94.1412   1
   3  10  -7 4211.64 101.904   1
  -3 -10   7 3985.62 95.8322   1
 -10   3  -7 3682.59 45.4301   1
 -10   3   7 4080.27 114.005   1
  10  -3  -7 4462.21 97.7178   1
  -3 -10   7 4318.34 78.8968   2
  -3 -10  -7 4619.44 110.058   1
   3  10  -9 167.496 49.0288   1
  -3 -10   9 128.267 39.2441   2
  10  -3  -9 245.704 55.4839   1
 -10   3   9 236.052 72.8507   1
  -3 -10  -9 135.346 60.1542   1
   3  10 -11 903.571 73.7523   1
 -10   3  11 1241.87 97.7856   1
  10  -3 -11 1122.83 83.6454   1
   3  10  11 1119.18 84.9328   2
  -3 -10  11 861.584 60.4674   2
  -3 -10 -11 885.712 72.1320   1
 -10   2   0 3020.96 52.3081   1
   2  10   0 3082.38 73.8191   1
 -10   2  -2 117.594 14.2861   1
   2  10  -2 107.263 35.0235   1
  -2 -10  -2 101.669 38.8638   1
 -10   2  -2 72.8901 11.3201   1
  10  -2  -2 69.9960 22.1244   1
 -10   2   2 81.5110 29.9042   1
  -2 -10   2 88.7641 33.5576   1
   2  10   2 29.8278 33.6282   1
 -10   2   4 2086.84 70.8562   1
  10  -2  -4 2331.89 59.5480   1
  -2 -10   4 1748.28 61.8920   1
   2  10   4 2151.98 64.0656   1
  -2 -10  -4 2438.29 75.6857   1
   2  10  -4 1887.94 58.8745   1
  -2 -10  -6-10.2808 45.0230   1
  -2 -10   6 36.7193 34.6074   1
   2  10  -6 31.6012 37.8920   1
 -10   2   6 25.0611 42.9020   1
 -10   2  -6 5.88394 12.9001   1
  10  -2  -6 45.1139 33.6482   1
   2  10   6 34.8438 39.6313   1
   2  10  -8 280.649 51.4835   1
 -10   2  -8 264.187 27.3228   1
  10  -2  -8 294.083 49.5774   1
 -10   2   8 273.747 62.4805   1
  -2 -10   8 306.269 40.8086   2
  -2 -10  -8 221.969 51.9775   1
   2  10   8 313.468 51.8396   1
   2  10 -10 145.507 54.9442   1
 -10   2 -10 134.858 36.1004   1
  10  -2 -10 48.2689 52.1055   1
  -2 -10  10 175.070 44.8870   2
  -2 -10 -10 65.3789 51.9693   1
 -10   2  10-24.0840 68.0829   1
  -2 -10 -12-27.8105 64.8771   1
   2  10  12-81.9214 70.1689   2
   2  10 -12-46.8986 54.0691   1
 -10   2  12-88.5366 80.4373   1
  -2 -10  12 64.6123 50.4786   2
  10  -2 -12-10.5775 60.7968   1
  -1 -10  -1 246.472 35.6420   1
 -10   1  -1 270.452 18.6183   1
  -1 -10   1 309.378 40.4012   1
 -10   1  -1 268.585 23.8620   1
  10  -1  -1 257.079 19.9417   1
   1  10   1 248.454 34.5714   1
   1  10  -1 303.752 37.6387   1
 -10   1   1 262.840 29.7144   1
 -10   1   3 552.894 42.5792   1
 -10   1  -3 522.607 15.5211   1
   1  10   3 611.362 47.8348   1
  10  -1  -3 504.881 32.1196   1
  -1 -10   3 486.325 43.0361   1
 -10   1  -3 578.904 16.3644   1
  -1 -10  -3 673.773 54.9367   1
   1  10  -3 508.766 45.0845   1
  -1 -10   5 1067.05 49.8793   1
 -10   1   5 1308.75 66.5854   1
 -10   1  -5 1224.27 21.7280   1
  10  -1  -5 1270.47 55.9252   1
   1  10   5 1289.89 63.3651   1
  -1 -10  -5 1437.12 66.7849   1
   1  10  -5 1083.85 50.9224   1
   1  10  -7 497.862 46.6890   1
 -10   1  -7 566.164 31.2390   1
  10  -1  -7 499.027 54.3187   1
  -1 -10  -7 512.715 63.4538   1
 -10   1   7 438.277 61.0003   1
   1  10   7 626.919 58.6235   1
   1  10  -9 486.046 53.4378   1
 -10   1   9 621.124 76.9337   1
  -1 -10  -9 440.900 56.8731   1
  10  -1  -9 662.247 69.3026   1
 -10   1  -9 573.518 38.8989   1
  -1 -10   9 557.972 50.5503   2
   1  10   9 562.690 60.2173   1
 -10   1  11 183.121 74.5003   1
   1  10 -11 48.7363 55.3277   1
  -1 -10 -11-6.42582 62.5121   1
  10  -1 -11 133.633 56.9456   1
 -10   1 -11 70.7355 39.9622   1
  -1 -10  11-18.5139 47.3382   2
  10  -1  11 103.533 62.3031   2
   0 -10   0 14997.0 151.006   1
   0  10   0 15199.4 143.751   1
 -10   0  -2 78742.5 192.232   1
   0 -10  -2 76064.8 350.423   1
 -10   0  -2 78126.1 203.314   1
 -10   0   2 80644.6 318.563   1
  10   0  -2 77804.8 268.837   1
   0 -10   2 75351.2 340.001   1
   0  10   2 75326.9 349.494   1
   0  10  -2 76222.9 331.552   1
  10   0  -4 4928.75 82.1982   1
 -10   0  -4 5604.55 51.0724   1
 -10   0   4 5487.72 106.410   1
   0  10   4 5723.40 109.487   1
   0 -10  -4 5595.61 102.922   1
   0  10  -4 6888.67 105.830   1
   0 -10   4 6778.42 95.8756   1
 -10   0  -4 5825.65 58.2253   1
   0  10  -6 18833.4 169.934   1
   0 -10   6 19891.0 144.165   1
 -10   0   6 15708.2 188.580   1
  10   0  -6 17031.3 174.098   1
 -10   0  -6 17992.4 104.125   1
   0  10   6 17512.8 199.829   1
   0 -10  -6 16652.7 186.437   1
  10   0  -8 568.423 55.1641   1
   0 -10  -8 561.159 62.0599   1
 -10   0  -8 498.616 36.3435   1
 -10   0   8 465.672 73.0067   1
   0  10   8 665.765 67.3644   1
  10   0 -10 779.364 74.8917   1
 -10   0 -10 692.071 52.6537   1
  10   0  10 529.446 67.1689   2
   0 -10 -10 617.216 72.7322   1
   0  10  10 615.526 70.6532   1
 -10   0  10 462.193 78.9982   1
   0  10 -10 523.081 58.1818   1
 -10   0  12-10.4378 67.1740   1
   0 -10 -12-7.14164 64.3196   1
   0  10 -12 88.6978 58.8525   1
  10   0 -12-2.51273 65.4738   1
   0 -10  12 27.8583 55.4895   2
  10   0  12-6.36551 70.2814   2
 -10   0 -12 34.4033 42.1365   1
   1 -10  -1 972.137 47.5581   1
 -10  -1  -1 944.561 37.2222   1
   1 -10   1 901.823 49.0711   1
  10   1  -1 972.569 31.6489   1
 -10  -1   1 937.541 44.4623   1
  -1  10   1 1103.68 51.7442   1
  -1  10  -1 953.134 45.2889   1
  -1  10  -3 39.2184 33.7589   1
 -10  -1  -3 39.8447 18.4270   1
   1 -10  -3-30.7932 38.2762   1
 -10  -1  -3 36.3647 16.6796   1
   1 -10   3-7.54653 27.1841   1
  10   1  -3 26.2777 24.7233   1
 -10  -1   3-4.82602 37.7103   1
  -1  10   3 17.6160 42.8920   1
   1 -10   5 698.053 33.8096   1
  10   1  -5 868.484 46.9990   1
 -10  -1  -5 795.189 28.2589   1
  -1  10   5 900.429 58.8935   1
 -10  -1   5 714.395 59.6912   1
   1 -10  -5 917.638 60.3157   1
  -1  10  -5 637.433 40.8884   1
  -1  10  -7 33.9065 36.3734   1
  10   1  -7 11.9364 44.5121   1
 -10  -1   7-51.1829 52.7182   1
 -10  -1  -7 39.5186 24.9438   1
  -1  10   7-13.0952 48.4905   1
   1 -10  -7-38.8635 49.6989   1
 -10  -1   9 158.387 65.3405   1
  -1  10  -9 99.2281 46.2716   1
  10   1  -9 105.889 51.3445   1
   1 -10  -9 302.200 65.1766   1
  10   1   9 192.886 56.4166   2
 -10  -1  -9 150.887 33.7428   1
  -1  10   9 94.2363 53.8618   1
  -1  10 -11-83.6823 53.6191   1
  10   1 -11 31.2444 54.6100   1
 -10  -1  11 50.6720 69.1910   1
  10   1  11 51.4093 63.9864   2
 -10  -1 -11 5.42904 40.4194   1
   1 -10 -11-43.6126 63.8274   1
   1 -10  11-30.7178 51.5553   2
  10   2   0 2093.73 35.5141   1
 -10  -2   0 2013.39 52.4163   1
  10   2  -2 181.509 24.7850   1
   2 -10  -2 256.629 37.6105   1
   2 -10   2 229.136 32.1514   1
 -10  -2   2 239.845 38.0430   1
  -2  10   2 274.112 43.4788   1
  -2  10  -2 265.883 34.8767   1
 -10  -2  -2 185.577 23.1917   1
  -2  10  -4 1396.91 51.1716   1
  10   2  -4 1527.50 53.9231   1
  -2  10   4 1705.04 70.3804   1
 -10  -2  -4 1557.62 40.1234   1
 -10  -2  -4 1440.41 37.0850   1
 -10  -2   4 1383.85 64.7248   1
   2 -10   4 1219.63 33.6380   1
 -10  -2   6 33.4606 49.4646   1
  -2  10  -6 11.0535 30.7255   1
  10   2  -6 47.8274 40.1602   1
  -2  10   6 48.3981 43.2861   1
 -10  -2  -6 44.0470 23.7765   1
   2 -10  -6 24.8875 46.4160   1
  -2  10  -8 623.719 48.1895   1
  10   2  -8 842.498 58.8828   1
 -10  -2   8 860.236 67.8306   1
 -10  -2  -8 798.201 41.9389   1
  10   2   8 1039.89 67.9957   2
   2 -10  -8 968.799 66.7999   1
  -2  10   8 840.176 64.7248   1
  -2  10 -10 33.3516 44.1759   1
 -10  -2  10 20.1831 62.1217   1
  10   2 -10 43.8145 55.9507   1
  10   2  10 28.3009 56.5642   2
 -10  -2 -10-5.36167 33.4352   1
   2 -10 -10 50.9458 62.4272   1
  -2  10  10 41.2174 56.0909   1
  -2  10 -12 163.924 58.2621   1
 -10  -2 -12 216.428 44.9724   1
  10   2 -12 112.087 61.5603   1
   2 -10 -12 343.951 74.0566   1
  10   2  12 210.515 72.9965   2
 -10  -2  12 261.515 77.6854   1
   3 -10  -1 2346.05 60.9101   1
 -10  -3  -1 2044.16 51.2653   1
  10   3  -1 1825.20 43.4696   1
  10   3   1 2040.69 32.1269   1
   3 -10   1 2321.68 59.6149   1
 -10  -3   1 1877.11 58.0505   1
  -3  10   1 2125.83 65.3844   1
  -3  10  -1 2080.32 58.8072   1
  10   3  -3 2189.07 56.4293   1
  -3  10  -3 2029.94 53.9039   1
 -10  -3   3 1924.33 68.4583   1
   3 -10   3 2048.91 40.5113   1
 -10  -3  -3 2114.23 45.9139   1
  -3  10   3 2322.01 72.2387   1
 -10  -3   5 961.620 61.0252   1
  10   3  -5 890.207 48.5674   1
  -3  10   5 1116.08 62.4986   1
 -10  -3  -5 1075.66 40.1691   1
   3 -10  -5 1149.66 61.0968   1
  -3  10  -5 864.921 40.7713   1
  -3  10  -7 557.370 43.0405   1
  -3  10   7 802.272 62.1293   1
 -10  -3   7 566.488 60.7552   1
  10   3  -7 691.956 54.8993   1
  10   3   7 833.276 57.9880   2
 -10  -3  -7 725.165 42.0438   1
   3 -10  -7 911.715 67.2737   1
  -3  10  -9 259.661 48.0872   1
  10   3   9 358.645 58.0717   2
  10   3  -9 194.530 51.3444   1
   3 -10  -9 273.111 60.4377   1
  -3  10   9 155.889 57.2428   1
 -10  -3  -9 198.967 39.2181   1
 -10  -3   9 249.202 54.1290   1
  -3  10 -11 435.523 61.0966   1
  10   3 -11 462.701 71.7110   1
 -10  -3 -11 508.890 59.1450   1
  10   3  11 546.353 69.5641   2
   3 -10 -11 536.273 73.3133   1
  -3  10  11 498.183 73.3176   1
 -10  -3  11 375.896 69.1839   1
 -10  -4   0 5634.84 95.4328   1
  -4  10   0 5850.32 94.8909   1
 -10  -4   2-4.45158 37.1630   1
   4 -10   2-17.6481 18.0118   1
   4 -10  -2 9.08823 31.9014   1
  10   4   2 13.6287 12.4800   1
  10   4  -2-2.11514 24.3240   1
 -10  -4  -2 1.92561 23.8025   1
  -4  10   2-2.71783 34.9810   1
  -4  10  -2 23.7530 29.4214   1
  10   4  -4 3130.36 70.4177   1
  -4  10   4 3069.37 84.3159   1
   4 -10  -4 3764.03 92.5147   1
 -10  -4   4 2659.72 83.2364   1
  -4  10  -4 2696.68 57.4309   1
 -10  -4  -4 3610.16 65.5664   1
  -4  10  -6-9.02759 29.0423   1
  10   4  -6 15.0140 39.1082   1
  10   4   6 3.34109 35.6593   2
  -4  10   6 64.6734 49.9662   1
 -10  -4   6 6.32978 50.9506   1
   4 -10  -6 52.5120 52.6394   1
 -10  -4  -6-14.2178 31.9299   1
  -4  10  -8 597.301 42.1356   1
  10   4   8 830.210 59.2743   2
  -4  10   8 775.936 68.8515   1
  10   4  -8 756.600 59.7383   1
 -10  -4   8 587.033 66.2450   1
   4 -10  -8 869.169 69.6819   1
 -10  -4  -8 786.882 48.7926   1
 -10  -4  10-15.3813 60.4934   1
  -4  10 -10 7.01925 42.7638   1
  -4  10  10-66.6480 60.2589   1
  10   4 -10-49.5563 54.2415   1
  10   4  10 16.1945 57.3123   2
 -10  -4 -10-36.5381 41.3535   1
   4 -10 -10-34.8584 58.8237   1
  -4  10 -12 70.9445 57.3535   1
  10   4 -12 66.8834 64.1259   1
 -10  -4 -12 128.250 52.7501   1
  10   4  12 191.577 68.9463   2
   4 -10 -12 170.136 64.4016   1
   5 -10  -1 1345.95 44.3953   1
  10   5   1 1450.82 34.7275   1
 -10  -5  -1 1752.81 57.0598   1
  10   5  -1 1917.97 48.3650   1
 -10  -5   1 1720.43 58.4123   1
   5 -10   1 1479.84 40.1213   1
  -5  10   1 1301.38 52.4232   1
  -5  10  -1 1218.63 49.3350   1
 -10  -5   3 2.63118 40.6743   1
 -10  -5  -3 60.8742 29.0843   1
  10   5   3 39.5370 13.5682   1
  10   5  -3 70.1808 29.2429   1
  -5  10   3 149.173 46.3274   1
   5 -10  -3 153.004 37.2147   1
   5 -10  -5 4302.03 104.115   1
  -5  10   5 3786.11 100.648   1
  10   5  -5 5684.20 102.553   1
 -10  -5  -5 4688.30 82.9845   1
  -5  10  -5 4000.60 72.6238   1
 -10  -5   5 5586.78 126.536   1
 -10  -5  -7 183.443 40.0343   1
 -10  -5   7 154.216 59.3880   1
  -5  10   7 119.155 58.1497   1
  10   5  -7 191.886 47.5015   1
  10   5   7 109.609 43.5897   2
  -5  10  -7 151.393 30.7093   1
   5 -10  -7 198.392 53.3047   1
  -5  10  -9 2259.52 74.8731   1
  10   5  -9 2646.14 92.4390   1
 -10  -5   9 1990.54 95.2283   1
  10   5   9 2322.68 89.2171   2
   5 -10  -9 2632.03 100.172   1
 -10  -5  -9 2521.50 78.3094   1
  -5  10   9 2602.96 106.721   1
  -5  10 -11 135.489 51.9878   1
 -10  -5  11 110.157 67.5841   1
  10   5 -11 56.7186 58.7199   1
  -5  10  11 125.780 61.0735   1
  10   5  11 89.0256 59.7471   2
   5 -10 -11 160.900 62.5292   1
 -10  -5 -11 108.342 53.5709   1
  10   6   0 11.1121 20.5138   1
   6 -10   0-4.84761 22.1870   1
 -10  -6   0 28.8378 34.2023   1
  -6  10   0-29.3028 31.1912   1
  10   6   2 2792.18 46.6302   1
  10   6  -2 2850.34 60.5401   1
 -10  -6  -2 3163.75 69.8133   1
 -10  -6   2 2988.22 82.5769   1
  -6  10   2 3313.95 79.9779   1
  -6  10  -2 3289.30 65.8400   1
   6 -10  -2 3636.27 71.3628   1
   6 -10  -4 67.7991 39.5338   1
 -10  -6  -4 45.3507 28.7162   1
  10   6  -4 56.9536 33.2694   1
 -10  -6   4-25.9737 44.4251   1
  -6  10   4 42.5896 46.4561   1
  -6  10  -4 8.04996 23.8408   1
  10   6  -6 633.833 51.8978   1
  10   6   6 604.939 44.8808   2
  -6  10   6 678.950 66.9691   1
   6 -10  -6 677.390 62.8395   1
 -10  -6  -6 670.982 49.5329   1
  -6  10  -6 571.141 34.3357   1
 -10  -6   6 561.016 62.0093   1
  -6  10  -8 203.543 34.5028   1
 -10  -6   8 135.838 55.9769   1
  10   6  -8 189.508 49.4033   1
 -10  -6  -8 261.828 47.6500   1
  10   6   8 212.001 50.2946   2
  -6  10   8 268.304 64.9695   1
   6 -10  -8 277.665 59.0787   1
   6 -10 -10 72.7920 59.9533   1
  -6  10 -10 21.0998 40.6116   1
  10   6 -10 107.217 56.9697   1
  10   6  10 93.1871 57.7266   2
 -10  -6  10 41.0201 56.1811   1
 -10  -6 -10 69.4637 49.9631   1
  -6  10  10 51.8030 66.0967   1
  -6  10 -12 123.356 54.9664   1
 -10  -6 -12 217.606 56.4573   1
  10   6 -12 197.023 67.8612   1
  10   6  12 217.797 69.7098   2
  -6  10  12 268.873 75.3891   1
   6 -10 -12 210.109 64.0323   1
   7 -10  -1 1404.39 40.4111   1
  10   7  -1 1194.89 42.7166   1
 -10  -7  -1 1254.50 56.3555   1
  10   7   1 1223.76 42.3682   1
 -10  -7   1 1080.86 53.3477   1
  -7  10  -1 1444.53 48.5949   1
 -10  -7   3-8.09218 41.2318   1
   7 -10  -3-19.2309 32.2583   1
  10   7   3-14.2612 20.7557   1
  10   7  -3-42.3562 29.7336   1
 -10  -7  -3 6.29269 32.2001   1
  -7  10   3 14.3461 44.4390   1
  -7  10  -3 31.7913 26.9266   1
   7 -10  -5 2561.67 80.5946   1
  10   7  -5 2052.52 70.3265   1
  -7  10   5 2227.89 85.6111   1
 -10  -7   5 1901.25 81.6933   1
  10   7   5 2382.23 64.4367   2
 -10  -7  -5 2430.14 71.9661   1
  -7  10  -5 1927.29 45.7583   1
 -10  -7  -7 176.070 45.1048   1
  -7  10  -7 121.981 27.3118   1
  10   7  -7 56.0024 43.8355   1
 -10  -7   7 172.041 55.1275   1
  10   7   7 186.425 42.8843   2
   7 -10  -7 139.974 49.8603   1
  10   7  -9 1119.28 72.2976   1
 -10  -7   9 850.996 77.2567   1
  -7  10  -9 763.832 47.4276   1
  10   7   9 1022.42 68.9976   2
   7 -10  -9 1171.28 78.1311   1
 -10  -7  -9 1086.81 68.6342   1
  -7  10   9 1171.80 91.8240   1
 -10  -7  11 21.4368 64.0285   1
  -7  10 -11 43.4336 43.6283   1
  10   7 -11 6.90857 58.7860   1
  10   7  11 61.9334 59.9422   2
 -10  -7 -11 70.8985 52.5750   1
  -7  10  11-64.2038 80.8721   1
   7 -10 -11 40.3069 60.8361   1
  10   8   0 537.202 37.0941   1
 -10  -8   0 562.927 47.4443   1
  10   8   2 9.00112 22.5841   1
   8 -10  -2 16.0846 24.0394   1
  10   8  -2-40.9962 28.6200   1
  -8  10   2 91.6040 42.3682   1
 -10  -8  -2 32.6798 39.1584   1
  -8  10  -2 53.8939 26.9564   1
 -10  -8   2 8.07966 40.4274   1
  -8  10   4 276.582 54.8444   1
  10   8  -4 152.467 36.0370   1
 -10  -8   4 155.182 45.8276   1
   8 -10  -4 218.471 40.9186   1
  -8  10  -4 212.140 27.5225   1
 -10  -8  -4 213.841 44.4038   1
  -8  10  -6 27.5183 24.6274   1
 -10  -8  -6 16.8420 42.8368   1
  -8  10   6 15.5624 61.7333   1
  10   8  -6 97.7704 45.3013   1
 -10  -8   6-28.6956 48.5000   1
  10   8   6 51.7076 33.8580   2
   8 -10  -6 2.24721 45.2153   1
 -10  -8   8 7.59227 56.3143   1
 -10  -8  -8 33.1572 46.8312   1
  -8  10  -8 72.4316 30.7185   1
  10   8  -8 98.4946 50.1781   1
  10   8   8 29.4860 42.8706   2
   8 -10  -8 57.2259 51.2876   1
 -10  -8 -10 95.4750 55.5416   1
  10   8 -10-60.9191 58.6086   1
 -10  -8  10 93.9582 62.3994   1
  10   8  10 122.171 56.0399   2
  -8  10  10 75.4235 79.9251   1
   8 -10 -10-28.9928 58.2127   1
  10   9   1 2501.68 60.7379   1
  10   9  -1 2513.90 68.7541   1
 -10  -9  -1 2332.92 72.5341   1
 -10  -9   1 2317.19 74.2872   1
  -9  10   1 2383.98 70.4168   1
  10   9   3 226.097 30.3010   1
 -10  -9  -3 223.929 41.9199   1
  -9  10  -3 220.150 27.0350   1
 -10  -9   3 166.760 47.7847   1
  10   9  -3 215.298 34.6215   1
  -9  10   3 171.432 48.7052   1
   9 -10  -3 252.754 32.7802   1
  10   9   5 3213.44 71.6724   2
  -9  10  -5 3079.46 52.1603   1
 -10  -9   5 2562.10 96.6807   1
  10   9  -5 2696.77 77.6132   1
   9 -10  -5 3890.19 91.5893   1
 -10  -9  -5 3322.45 87.3974   1
  -9  10   5 3774.80 114.259   1
 -10  -9  -7-43.3429 47.2346   1
  10   9  -7-77.4531 48.2987   1
  10   9   7 26.1923 39.3248   2
  -9  10   7 61.8421 67.3426   1
 -10  -9   7-18.4378 48.4291   1
   9 -10  -7-11.2198 48.2032   1
  10   9  -9 1361.89 80.9257   1
 -10  -9   9 1211.74 85.4691   1
 -10  -9  -9 1442.89 81.4955   1
  -9  10   9 1507.42 102.858   1
  10   9   9 1465.89 75.1086   2
   9 -10  -9 1502.95 87.8753   1
 -10  -9 -11-19.4709 57.4552   1
  10   9 -11 19.8534 61.8834   1
  10   9  11 60.9751 63.6548   2
  -9  10  11-53.4852 85.5989   1
   9 -10 -11 84.2335 65.2991   1
  10  10   0 49204.3 266.179   1
 -10 -10   0 50490.7 313.782   1
  10  10   2 2803.23 68.4182   1
  10  10  -2 3699.42 87.9813   1
 -10 -10  -2 2593.97 80.0799   1
 -10  10  -2 3402.15 64.5854   1
 -10 -10   2 3500.31 99.3187   1
 -10  10   2 2465.58 78.8895   1
  10  10  -4 35905.7 247.330   1
 -10 -10   4 36897.6 290.492   1
 -10  10   4 31471.8 259.578   1
 -10  10  -4 34043.5 158.031   1
 -10 -10  -4 32970.7 259.141   1
  10  10  -6 2000.00 78.5852   1
  10  10   6 2146.17 66.3685   2
  10 -10  -6 2349.54 80.3281   1
 -10 -10   6 1571.94 83.0839   1
 -10 -10  -6 1988.35 77.7672   1
 -10  10   6 2648.84 112.529   1
 -10 -10   8 8722.41 172.972   1
  10  10  -8 8882.59 155.640   1
  10  10   8 8256.84 134.730   2
  10 -10  -8 7950.05 142.857   1
 -10 -10  -8 7775.09 142.858   1
  10  10 -10 1676.60 91.4668   1
 -10  10  10 1931.86 117.079   1
  10  10  10 1828.55 89.5380   2
  10 -10 -10 1781.90 91.6628   1
 -10 -10 -10 1796.67 95.2943   1
  10  11   1 62.0252 36.8196   1
  10  11  -1 69.6377 35.6516   1
 -10 -11  -1-13.0080 49.5051   1
 -11  10   1 34.1331 38.0502   1
 -10 -11   1-4.30045 44.0980   1
 -11  10  -1-6.61974 27.9676   1
 -10 -11   3-13.4112 49.5555   1
  10  11   3 16.5890 35.3025   1
 -11  10   3 7.60426 45.8966   1
  10  11  -3-34.3399 41.3331   1
 -10 -11  -3-23.8876 47.7338   1
 -11  10   5 12.9151 60.0835   1
 -10 -11  -5-0.98274 50.6371   1
  10  11  -5 46.7798 43.9743   1
 -10 -11   5-2.52238 51.4235   1
 -10 -11  -7 9.71768 52.3937   1
  10  11  -7 39.7051 44.9575   1
 -11  10   7 54.3915 70.9295   1
  10  11   7-1.55091 38.0758   2
 -10 -11   7 36.7839 55.7341   1
 -10 -11   9-16.4315 61.3539   1
 -10 -11  -9-45.6118 54.5065   1
  10  11  -9-5.23314 57.7707   1
 -11  10   9 174.839 87.8814   1
  10  11   9 37.9448 53.3715   2
   9  11   0 1782.11 62.6770   1
 -11   9   0 1691.07 49.5973   1
  -9 -11   0 1756.28 71.7645   1
   9  11  -2 888.408 49.9919   1
  -9 -11  -2 968.017 63.2749   1
 -11   9   2 965.995 52.0378   1
 -11   9  -2 906.014 33.8879   1
  -9 -11   2 852.080 62.3875   1
   9  11   2 964.311 51.1034   1
   9  11  -4 949.243 60.2209   1
 -11   9   4 1124.89 68.0295   1
  -9 -11   4 870.085 65.4882   1
  -9 -11  -4 1026.31 66.9385   1
   9  11   4 1036.34 51.8371   1
   9  11  -6 300.732 46.4011   1
 -11   9   6 399.544 68.7478   1
   9  11   6 393.868 40.8873   2
  -9 -11   6 284.702 60.8388   1
  -9 -11  -6 314.723 52.1305   1
  -9 -11  -8 181.298 59.2202   1
 -11   9   8 221.431 78.0224   1
   9  11  -8 175.608 53.4098   1
  11  -9  -8 251.290 53.6777   1
   9  11   8 224.300 53.1104   2
  -9 -11   8 184.267 60.5919   1
  -9 -11 -10 177.466 68.0257   1
 -11   9  10 214.604 89.4448   1
   9  11 -10 104.633 55.8894   1
   9  11  10 85.3733 63.0694   2
  11  -9 -10 27.4612 53.3678   1
   8  11  -1 7360.26 114.254   1
 -11   8   1 7573.47 101.515   1
 -11   8  -1 7367.82 82.6539   1
   8  11   1 7523.56 109.563   1
  -8 -11  -3 1611.50 69.7013   1
   8  11  -3 1450.27 61.8753   1
  -8 -11   3 1495.12 75.1894   1
 -11   8  -3 1489.49 30.9409   1
   8  11   3 1575.71 59.7998   1
   8  11  -5 10635.4 154.470   1
 -11   8   5 9038.88 151.542   1
   8  11   5 8971.18 110.168   2
  -8 -11   5 9981.37 161.532   1
  11  -8  -5 9464.99 130.860   1
  -8 -11  -5 8755.29 141.193   1
   8  11   5 9695.24 135.874   1
  -8 -11  -7 304.817 58.2164   1
   8  11  -7 220.781 46.8427   1
  11  -8  -7 302.791 48.0064   1
 -11   8   7 276.809 72.7799   1
  -8 -11   7 359.642 62.1352   1
   8  11   7 328.297 44.8284   2
   8  11  -9 4732.25 125.476   1
  -8 -11   9 4250.66 128.110   1
   8  11   9 4561.69 109.908   2
  11  -8  -9 4810.43 120.227   1
 -11   8   9 4904.21 152.772   1
  -8 -11  -9 4280.22 126.576   1
  -8 -11 -11-29.1466 61.3022   1
 -11   8  11 1.17780 84.5780   1
   8  11 -11-9.24929 59.7686   1
   8  11  11-37.2157 60.4622   2
  11  -8 -11 220.808 62.1869   1
  -7 -11   0 1269.90 65.5911   1
   7  11   0 1401.20 54.6213   1
   7  11  -2 539.910 46.0380   1
  -7 -11  -2 640.702 54.2593   1
 -11   7  -2 575.150 23.0427   1
  -7 -11   2 599.663 49.3560   1
 -11   7   2 671.933 47.0898   1
   7  11   2 703.648 47.3483   1
   7  11  -4 580.474 48.1989   1
   7  11   4 778.797 33.9098   2
  -7 -11   4 553.803 55.2051   1
  11  -7  -4 726.853 41.0424   1
   7  11   4 779.846 49.4615   1
  -7 -11  -4 871.272 62.5495   1
 -11   7   4 855.547 62.3122   1
   7  11   6 880.359 54.3212   1
   7  11  -6 619.973 57.6152   1
 -11   7   6 851.779 70.9530   1
   7  11   6 949.858 52.0910   2
  11  -7  -6 841.428 52.2662   1
  -7 -11  -6 721.349 64.6653   1
  -7 -11   6 699.718 64.4556   1
  -7 -11   8 147.539 55.8219   1
  -7 -11  -8 208.392 60.1560   1
   7  11  -8 133.119 49.3425   1
 -11   7   8 113.446 68.4838   1
   7  11   8 176.879 51.2381   2
  11  -7  -8 177.581 58.3848   1
   7  11 -10 458.102 69.8837   1
   7  11  10 427.552 58.7297   2
  11  -7 -10 477.069 63.8149   1
 -11   7  10 653.694 94.3914   1
  -7 -11 -10 434.075 68.6733   1
   6  11   1-19.8675 36.4314   1
   6  11  -1 43.9588 33.4106   1
 -11   6  -1-6.12186 20.4335   1
  -6 -11  -1 70.2174 40.2050   1
 -11   6   1 76.7983 29.1817   1
  -6 -11   1 10.7800 42.5678   1
   6  11  -3 789.560 50.6599   1
  11  -6  -3 923.012 38.2666   1
  -6 -11   3 819.167 61.4856   1
   6  11   3 957.914 33.9953   2
 -11   6  -3 754.627 16.7344   1
 -11   6   3 1020.81 55.0084   1
   6  11   3 905.500 50.0234   1
  -6 -11  -3 1023.36 60.0311   1
   6  11  -5 263.446 44.0038   1
   6  11   5 350.424 35.4810   2
  11  -6  -5 448.118 43.3196   1
  -6 -11   5 352.887 55.0073   1
 -11   6   5 387.531 61.3146   1
   6  11   5 349.274 48.2218   1
  -6 -11  -5 450.279 56.4414   1
  -6 -11   7 1068.59 64.5588   1
   6  11   7 1349.37 66.9972   1
   6  11  -7 1060.19 64.9513   1
 -11   6   7 1382.37 91.0778   1
   6  11   7 1551.65 63.7312   2
  11  -6  -7 1400.89 67.5437   1
  -6 -11  -7 1183.58 70.5016   1
   6  11  -9 188.612 58.7294   1
 -11   6   9 305.575 77.5582   1
  11  -6  -9 344.768 52.5874   1
   6  11   9 279.024 58.0480   2
  -6 -11  -9 444.442 64.8556   1
 -11   6  11 264.929 86.6075   1
   6  11 -11 100.415 60.7592   1
  11  -6 -11 274.598 58.8291   1
   6  11  11 256.852 64.2588   2
  -6 -11 -11 260.841 68.2747   1
 -11   5   0 1956.31 49.1498   1
  -5 -11   0 1931.84 72.3366   1
   5  11   0 2103.77 68.1007   1
  11  -5  -2 50.0126 18.1711   1
   5  11   2 72.7411 36.4143   1
   5  11  -2 95.6955 35.0503   1
 -11   5  -2 59.1176 15.7122   1
  -5 -11  -2 31.9095 40.0254   1
   5  11   2 85.6171 17.4125   2
 -11   5   2 24.0769 30.5006   1
  -5 -11   2 20.0820 36.9621   1
   5  11  -4 1280.80 60.6253   1
   5  11   4 1478.94 43.3196   2
  11  -5  -4 1637.56 54.4922   1
 -11   5   4 1598.34 74.8184   1
  -5 -11   4 1233.19 63.4354   1
   5  11   4 1539.00 64.1700   1
  -5 -11  -4 1409.56 64.3937   1
  -5 -11  -6 151.428 43.3053   1
   5  11  -6 69.9415 44.9905   1
   5  11   6 131.985 40.2955   1
 -11   5   6 147.966 59.0213   1
  -5 -11   6 47.5116 41.2504   1
  11  -5  -6 158.440 35.0544   1
   5  11   6 114.468 36.6550   2
  -5 -11  -8 142.653 53.9786   1
   5  11  -8 274.469 52.8549   1
  -5 -11   8 238.070 52.5497   1
   5  11   8 300.511 49.4464   2
  11  -5  -8 116.809 50.1719   1
 -11   5   8 236.576 70.9543   1
   5  11 -10 189.123 58.5258   1
 -11   5  10 289.362 80.9110   1
  -5 -11 -10 284.957 61.3651   1
  11  -5 -10 362.855 63.8013   1
   5  11  10 356.824 61.1933   2
 -11   5  12 87.2178 82.8227   1
   5  11 -12-44.4737 63.7841   1
   5  11  12 97.4156 72.9103   2
  11  -5 -12-72.9388 65.5808   1
  -5 -11 -12 73.1786 63.8527   1
 -11   4   1 244.944 33.0106   1
  -4 -11  -1 261.895 44.9756   1
 -11   4  -1 269.590 21.0266   1
 -11   4  -1 215.134 22.2274   1
  -4 -11   1 177.482 43.3887   1
   4  11   1 290.036 41.5270   1
   4  11  -1 205.047 40.2389   1
 -11   4   3 777.093 47.2091   1
  -4 -11   3 546.915 52.2005   1
  11  -4  -3 846.487 37.8607   1
   4  11   3 774.502 49.6362   1
  -4 -11  -3 806.086 58.1490   1
   4  11  -3 632.680 46.0668   1
  11  -4  -5 45.8292 32.3545   1
  -4 -11  -5 112.531 46.8013   1
   4  11  -5 4.21477 38.5352   1
 -11   4   5 59.2208 53.0863   1
  -4 -11   5-26.7555 39.6572   1
   4  11   5-5.84856 42.2938   1
  -4 -11   7 554.535 52.9914   1
   4  11  -7 638.400 61.0978   1
   4  11   7 624.620 52.9338   1
 -11   4   7 587.778 74.1415   1
  11  -4  -7 551.775 51.1333   1
  -4 -11  -7 692.321 63.4830   1
  -4 -11  -9 101.938 57.5224   1
   4  11  -9 64.9416 46.0635   1
   4  11   9 199.605 52.5392   2
  11  -4  -9 37.2221 49.5131   1
 -11   4   9 126.084 71.0962   1
   4  11 -11 37.3125 61.7173   1
 -11   4  11 9.39761 77.7338   1
   4  11  11-42.8709 60.0163   2
  11  -4 -11-19.8461 57.4344   1
  -4 -11 -11-19.8099 65.0862   1
  -3 -11   0 417.796 47.4776   1
   3  11   0 1166.09 62.6165   1
  -3 -11  -2 2508.31 75.5241   1
 -11   3   2 3446.69 78.1595   1
 -11   3  -2 3491.85 43.1354   1
 -11   3  -2 3523.72 37.1844   1
  -3 -11   2 3036.52 83.4650   1
  11  -3  -2 2439.86 45.0466   1
   3  11   2 2485.38 70.7621   1
   3  11  -2 3668.97 91.1038   1
 -11   3   4 499.258 47.7696   1
   3  11  -4 1196.07 57.8953   1
  11  -3  -4 568.435 38.0837   1
   3  11   4 625.760 50.3899   1
  -3 -11   4 1506.58 63.8035   1
  -3 -11  -4 724.050 58.0207   1
   3  11  -6 533.813 53.1987   1
   3  11   6 432.163 53.3514   1
  11  -3  -6 633.145 50.8301   1
 -11   3   6 592.076 67.7693   1
  -3 -11  -6 475.047 60.5674   1
  -3 -11   6 709.097 53.6295   1
 -11   3   8 1557.10 93.9320   1
  11  -3  -8 1639.05 77.1697   1
  -3 -11  -8 1712.76 86.8524   1
   3  11   8 1516.53 73.0704   1
 -11   3  10 145.770 70.5927   1
  11  -3 -10-70.5097 63.5797   1
   3  11 -10 56.1280 50.6771   1
  -3 -11 -10 104.925 63.4028   1
   3  11 -12 681.213 75.7472   1
 -11   3  12 1023.69 105.775   1
  11  -3 -12 884.225 86.1455   1
   3  11  12 911.779 86.8930   2
  -3 -11 -12 820.128 85.6487   1
  -2 -11  -1 3208.72 82.6737   1
   2  11   1 2975.30 77.2205   1
 -11   2  -1 2812.27 45.2912   1
  -2 -11   1 2940.42 82.4016   1
 -11   2  -1 2760.94 46.1046   1
 -11   2   1 2818.34 64.0547   1
   2  11  -1 3212.49 81.6534   1
 -11   2   3 2842.63 76.6326   1
 -11   2  -3 2571.46 26.2844   1
  11  -2  -3 2817.57 57.9047   1
  -2 -11   3 2631.23 77.4487   1
 -11   2  -3 2880.59 28.5137   1
   2  11   3 2843.58 78.2308   1
   2  11  -3 2800.61 76.4531   1
   2  11  -5 526.827 53.1275   1
 -11   2   5 436.256 50.4346   1
  11  -2  -5 502.439 40.3207   1
   2  11   5 586.052 50.5277   1
  -2 -11  -5 436.450 46.5539   1
  -2 -11   5 447.432 44.7155   1
 -11   2   7 3116.20 114.240   1
  11  -2  -7 2967.05 85.1691   1
  -2 -11  -7 2901.52 92.7381   1
   2  11   7 3138.53 93.6463   1
   2  11  -9 11.5611 46.6098   1
 -11   2   9-57.2415 70.4728   1
  11  -2  -9-3.80181 50.5947   1
  -2 -11   9-3.01992 42.2217   2
   2  11   9-4.92293 50.5417   1
  -2 -11  -9 38.5783 55.0889   1
 -11   2  11 746.404 88.9202   1
  -2 -11 -11 781.046 78.4814   1
  11  -2 -11 940.919 77.5228   1
 -11   1   0 316.084 31.2303   1
   1  11   0 240.364 41.6955   1
   1  11  -2 140.933 44.9385   1
 -11   1  -2 128.805 18.4021   1
 -11   1  -2 141.360 16.8338   1
  -1 -11  -2 150.678 42.6515   1
   1  11   2 25.1950 38.3052   1
  11  -1  -2 148.285 24.7459   1
 -11   1   2 101.840 35.6816   1
  -1 -11   2 88.2112 35.8204   1
 -11   1   4-68.5812 45.8414   1
   1  11  -4 27.8358 36.1674   1
  -1 -11  -4-12.0384 45.7779   1
  -1 -11   4-23.9577 36.6510   1
 -11   1  -4 32.1936 12.6239   1
  11  -1  -4-18.5140 26.3688   1
   1  11   4 48.6816 41.9975   1
   1  11  -6 387.864 45.7379   1
  -1 -11   6 446.802 39.8655   1
 -11   1   6 401.127 56.7676   1
  11  -1  -6 479.156 49.2814   1
 -11   1  -6 460.789 23.7780   1
   1  11   6 473.783 56.4877   1
  -1 -11  -8 96.5558 53.2722   1
 -11   1   8 82.5499 62.0488   1
   1  11  -8 29.8152 46.9495   1
  11  -1  -8 153.625 51.4087   1
 -11   1  -8 95.2973 25.5008   1
   1  11   8 50.7384 51.5664   1
   1  11 -10 100.359 49.7366   1
  11  -1 -10 181.411 58.6539   1
 -11   1  10 143.319 70.6883   1
  -1 -11  10 141.887 48.9362   2
  -1 -11 -10 208.441 64.0194   1
 -11   1  12 45.5219 77.9084   1
   1  11 -12-23.7287 57.2336   1
  11  -1 -12-3.91887 61.6331   1
  -1 -11 -12 46.2688 61.9654   1
   0 -11  -1 675.515 47.2546   1
 -11   0  -1 555.603 24.3373   1
 -11   0  -1 668.294 33.7921   1
   0 -11   1 701.874 50.2437   1
  11   0  -1 749.588 28.3508   1
 -11   0   1 672.023 38.7589   1
   0  11   1 690.527 47.9026   1
   0  11  -1 609.450 46.3743   1
 -11   0  -3 477.100 23.0024   1
  11   0  -3 493.760 35.0616   1
   0  11  -3 576.664 45.3528   1
   0 -11   3 533.962 42.9544   1
   0  11   3 554.858 52.5997   1
 -11   0  -3 521.206 21.6326   1
   0 -11  -3 557.777 46.3006   1
 -11   0   3 480.332 47.0086   1
   0 -11  -5 207.320 52.2020   1
   0  11  -5 158.019 39.9017   1
 -11   0   5 195.506 51.7314   1
  11   0  -5 139.112 33.9253   1
 -11   0  -5 143.010 17.7420   1
   0 -11   5 160.324 31.3960   1
   0  11   5 126.106 48.3663   1
   0 -11  -7 78.9092 51.7270   1
   0  11  -7 135.604 40.5794   1
 -11   0  -7 179.409 25.3165   1
  11   0  -7 135.311 41.0169   1
 -11   0   7 94.6363 51.3333   1
   0  11   7 233.320 57.6586   1
   0  11  -9 56.7580 47.6886   1
 -11   0   9 149.255 68.3158   1
  11   0  -9 55.1121 54.7701   1
   0  11   9 71.6133 56.7028   1
 -11   0  -9 101.984 31.2413   1
   0 -11  -9 64.2920 53.7568   1
   0  11 -11 56.2659 52.3678   1
  11   0 -11-20.3904 65.7558   1
 -11   0 -11-44.4580 36.1755   1
 -11   0  11 27.1778 72.4057   1
   0 -11 -11-24.9271 62.9688   1
   1 -11   0 497.241 42.9609   1
 -11  -1   0 446.659 33.5241   1
  -1  11   0 375.306 39.4464   1
 -11  -1  -2 7741.65 80.3060   1
 -11  -1  -2 8004.25 83.5357   1
  11   1  -2 8534.95 91.6872   1
   1 -11   2 8285.08 111.364   1
 -11  -1   2 7220.18 108.773   1
  -1  11   2 8108.62 125.871   1
  -1  11  -2 7513.72 104.306   1
   1 -11  -2 9227.88 126.358   1
 -11  -1   4 283.850 49.6695   1
  11   1  -4 290.534 36.1283   1
  -1  11   4 359.737 56.3876   1
 -11  -1  -4 325.761 25.2298   1
   1 -11   4 305.803 33.4714   1
  -1  11  -4 304.498 37.7728   1
 -11  -1   6 2550.20 94.8149   1
   1 -11  -6 3482.06 100.677   1
  11   1  -6 3146.28 82.8627   1
 -11  -1  -6 2984.22 52.3421   1
  -1  11   6 3245.25 99.6047   1
  -1  11  -6 2728.97 72.9760   1
  -1  11  -8 129.630 39.8498   1
  11   1  -8 166.098 50.6744   1
   1 -11  -8 130.260 65.3964   1
 -11  -1  -8 99.0357 27.1871   1
 -11  -1   8 100.617 55.8943   1
  -1  11   8 120.668 55.9779   1
  -1  11 -10 549.890 58.7960   1
   1 -11 -10 423.446 66.6768   1
  11   1 -10 553.971 67.6472   1
 -11  -1 -10 421.323 42.5732   1
  11   1  10 602.806 69.8064   2
 -11  -1  10 452.784 79.8973   1
  -1  11  10 508.341 76.5638   1
 -11  -1 -12-1.69210 39.9377   1
  -1  11 -12-55.0586 60.9690   1
  11   1 -12-64.9228 68.2886   1
  11   1  12 19.1608 68.4381   2
 -11  -1  12 15.4757 75.9260   1
   1 -11 -12 89.4457 65.3723   1
  -2  11  -1 1471.02 55.0255   1
   2 -11  -1 1518.51 55.9137   1
 -11  -2  -1 2015.00 50.7166   1
  11   2  -1 2097.12 41.2716   1
   2 -11   1 1716.48 60.5035   1
 -11  -2   1 2184.99 64.7241   1
  -2  11   1 1764.49 64.7000   1
   2 -11  -3 70.1668 37.5335   1
 -11  -2  -3 29.4121 22.4450   1
  -2  11  -3 435.625 41.7734   1
 -11  -2   3 84.9322 40.1370   1
  11   2  -3 20.2130 24.8510   1
   2 -11   3 462.032 32.9989   1
  -2  11   3 141.365 49.1943   1
  11   2  -5 4666.43 88.6848   1
  -2  11   5 4468.37 110.785   1
   2 -11  -5 4681.24 110.045   1
   2 -11  -7 158.897 53.2011   1
  -2  11  -7 98.1291 38.5446   1
 -11  -2   7 99.7120 52.7921   1
  11   2  -7 110.462 41.7655   1
  -2  11   7 182.058 55.5799   1
 -11  -2  -7 70.3778 29.1331   1
  -2  11  -9 2729.76 91.3168   1
  11   2  -9 2925.08 100.511   1
   2 -11  -9 2685.55 102.629   1
  -2  11   9 2720.07 105.948   1
  11   2   9 2588.46 96.2153   2
  -2  11 -11 103.986 49.3099   1
 -11  -2  11 11.3953 70.0849   1
  11   2 -11 44.5459 59.1902   1
  11   2  11 89.3323 70.1378   2
  -2  11  11 226.769 70.6585   1
 -11  -2 -11 43.4670 41.4436   1
   2 -11 -11 230.065 65.4083   1
   3 -11   0 9778.90 117.423   1
  -3  11   0 9672.50 125.883   1
  11   3   0 8631.79 75.2427   1
 -11  -3   0 8258.68 103.864   1
 -11  -3  -2 319.753 31.8686   1
 -11  -3   2 329.436 42.4377   1
  11   3  -2 354.886 29.6593   1
   3 -11   2 334.599 31.5769   1
  -3  11   2 325.765 47.8857   1
  -3  11  -2 345.053 38.6389   1
   3 -11  -2 467.803 43.7099   1
  11   3  -4 4084.35 78.4115   1
  -3  11   4 3939.24 96.0125   1
   3 -11  -4 4026.90 88.7187   1
 -11  -3  -4 4331.20 67.7248   1
  -3  11  -4 3543.36 76.9955   1
 -11  -3   4 3728.89 99.5049   1
 -11  -3   6 427.112 62.2445   1
  -3  11   6 567.208 62.8556   1
  11   3  -6 518.185 48.9652   1
 -11  -3  -6 577.825 38.2617   1
   3 -11  -6 606.010 58.9876   1
  -3  11  -6 410.884 40.3609   1
  -3  11  -8 541.199 43.8783   1
  11   3  -8 613.608 56.7933   1
 -11  -3   8 511.703 62.7967   1
  11   3   8 702.598 61.4474   2
 -11  -3  -8 672.013 45.8620   1
  -3  11   8 630.460 66.5691   1
   3 -11  -8 762.061 65.5910   1
  -3  11 -10 440.385 53.4089   1
  11   3 -10 547.209 64.0940   1
 -11  -3 -10 542.588 51.5565   1
  11   3  10 737.764 81.4448   2
 -11  -3  10 542.711 82.5997   1
   3 -11 -10 613.532 67.8999   1
  -3  11  10 553.208 73.2628   1
  -3  11 -12 37.0230 57.0370   1
  11   3 -12 100.480 66.5134   1
 -11  -3  12 33.3533 71.7423   1
  11   3  12 65.4853 72.5868   2
 -11  -3 -12 76.5810 49.1354   1
   3 -11 -12 128.179 70.7900   1
   4 -11  -1 234.063 34.4400   1
 -11  -4  -1 201.427 32.9618   1
  11   4  -1 164.734 23.2877   1
  11   4   1 212.054 17.7066   1
   4 -11   1 163.209 26.9087   1
  -4  11   1 228.959 43.1949   1
  -4  11  -1 241.146 38.1351   1
  -4  11  -3 2122.43 56.4682   1
  11   4  -3 2071.14 56.4441   1
  -4  11   3 2261.69 74.4675   1
   4 -11  -3 2387.44 71.9224   1
 -11  -4  -3 2235.20 53.4417   1
  -4  11  -5 60.5578 32.2103   1
 -11  -4  -5 67.9252 27.7723   1
  11   4  -5 108.190 37.3916   1
 -11  -4   5-0.15459 52.5931   1
   4 -11  -5 180.860 49.3148   1
  -4  11   5 93.4260 47.0139   1
 -11  -4   7 1590.49 88.5266   1
  11   4  -7 1581.51 69.3628   1
   4 -11  -7 1774.57 81.6495   1
  -4  11   7 1761.46 80.3549   1
 -11  -4  -7 1664.56 59.0344   1
  -4  11  -9 136.421 42.7295   1
  11   4  -9 23.4052 52.0430   1
 -11  -4  -9 122.068 44.9800   1
 -11  -4   9-3.26905 58.5310   1
  11   4   9 184.591 60.4342   2
  -4  11   9-3.16160 59.0135   1
   4 -11  -9 142.469 57.3725   1
  -4  11 -11 361.732 55.4421   1
  11   4 -11 409.863 65.8590   1
  11   4  11 573.319 74.3879   2
 -11  -4 -11 640.673 59.0635   1
   4 -11 -11 632.220 80.4085   1
 -11  -4  11 599.294 82.6952   1
  -4  11  11 546.088 78.6278   1
  11   5   0 2190.60 47.2770   1
 -11  -5   0 2226.68 69.1617   1
 -11  -5   2 45.6235 41.5362   1
   5 -11  -2 87.7275 33.2579   1
  11   5   2 25.7652 15.0898   1
  11   5  -2 57.0386 25.1164   1
 -11  -5  -2 32.9701 31.8320   1
  -5  11   2 62.2039 35.2603   1
  -5  11  -2 98.2557 34.6232   1
  11   5  -4 1110.26 51.1253   1
  -5  11   4 1100.73 65.4828   1
 -11  -5   4 993.929 68.6514   1
  -5  11  -4 975.943 42.8264   1
   5 -11  -4 1161.96 55.4138   1
 -11  -5  -4 1058.20 44.4176   1
   5 -11  -6 43.3725 51.6024   1
  -5  11  -6 43.0151 30.8210   1
 -11  -5  -6 7.95077 36.6771   1
  -5  11   6 75.2568 54.2514   1
  11   5  -6 16.5128 39.8289   1
 -11  -5   6-46.1876 50.8955   1
  -5  11  -8 182.458 37.0355   1
 -11  -5   8 297.355 61.5265   1
  11   5  -8 352.926 52.7463   1
  11   5   8 443.920 60.1084   2
   5 -11  -8 364.806 65.0544   1
 -11  -5  -8 364.562 47.7356   1
  -5  11   8 263.713 62.9486   1
  -5  11 -10 75.2658 46.4725   1
  11   5 -10 6.42192 57.3922   1
  -5  11  10-19.7143 65.2100   1
  11   5  10 63.9373 60.5734   2
 -11  -5  10-5.30883 55.5991   1
   5 -11 -10 96.7578 59.6010   1
 -11  -5 -10 33.3637 45.1785   1
  -5  11 -12 64.7273 54.5338   1
  11   5 -12 27.6910 60.7170   1
  11   5  12 89.2445 71.4657   2
  -5  11  12 167.581 78.2004   1
 -11  -5 -12 122.915 57.0756   1
   5 -11 -12 131.489 71.0667   1
   6 -11  -1 1209.92 47.6286   1
  11   6   1 1015.96 34.2298   1
  11   6  -1 993.466 40.1137   1
 -11  -6  -1 1003.71 50.6921   1
 -11  -6   1 1051.64 52.4679   1
  -6  11   1 1251.91 56.0097   1
  -6  11  -1 1138.57 51.7016   1
 -11  -6  -3 3339.73 70.8679   1
  11   6  -3 3110.43 71.4803   1
  -6  11   3 3466.26 93.6758   1
 -11  -6   3 2925.06 86.5273   1
  -6  11  -3 3658.40 71.8981   1
   6 -11  -3 3291.90 75.2125   1
   6 -11  -5 67.5276 46.7979   1
 -11  -6  -5 18.2145 39.1544   1
  -6  11   5 88.2556 54.3034   1
  11   6  -5 9.83536 38.6595   1
 -11  -6   5 38.9697 50.8019   1
 -11  -6   7 1775.84 87.0354   1
  11   6  -7 1795.64 72.3994   1
  11   6   7 2287.82 77.8270   2
  -6  11   7 1849.50 93.6809   1
   6 -11  -7 2011.43 86.7521   1
 -11  -6  -7 2176.40 73.0467   1
  -6  11  -7 1582.19 51.8490   1
  -6  11  -9 67.5170 38.2491   1
 -11  -6   9 23.7077 57.3107   1
  11   6  -9-31.7778 50.9387   1
  11   6   9 0.14892 55.3641   2
  -6  11   9 5.92685 67.9241   1
   6 -11  -9 120.212 57.6121   1
 -11  -6  -9 28.7500 47.2900   1
  -6  11 -11 386.156 50.0295   1
  11   6 -11 485.019 71.1120   1
 -11  -6  11 426.171 81.2186   1
  11   6  11 529.166 73.0055   2
   6 -11 -11 672.302 83.0942   1
 -11  -6 -11 572.694 64.8459   1
  -6  11  11 450.714 74.8276   1
 -11  -7   0 2951.57 84.4604   1
  -7  11   0 3245.78 75.6622   1
 -11  -7  -2 6050.27 105.441   1
  11   7   2 5406.09 67.6772   1
  11   7  -2 7189.65 96.5066   1
 -11  -7   2 7811.83 125.526   1
  -7  11  -2 6649.07 97.0071   1
  -7  11   2 5951.42 108.221   1
   7 -11  -2 5941.91 86.6438   1
  11   7  -4 4443.70 91.6162   1
  -7  11   4 5045.83 116.882   1
 -11  -7   4 4250.97 105.562   1
   7 -11  -4 4882.84 93.1981   1
 -11  -7  -4 5042.85 95.4509   1
  11   7  -6 1296.92 64.8779   1
  11   7   6 1410.96 60.1558   2
  -7  11   6 1630.14 89.0631   1
   7 -11  -6 1865.20 79.2790   1
 -11  -7  -6 1622.48 66.3343   1
  -7  11  -6 1496.43 50.1309   1
 -11  -7   6 1188.43 79.8420   1
 -11  -7   8 2986.42 112.950   1
  11   7  -8 3147.72 93.5441   1
  -7  11   8 3661.47 126.419   1
  11   7   8 3397.54 96.8127   2
   7 -11  -8 4074.42 118.581   1
 -11  -7  -8 3636.15 98.5065   1
  -7  11  -8 3479.56 75.2200   1
  -7  11 -10 548.618 54.3963   1
  11   7 -10 446.487 66.7406   1
 -11  -7  10 514.222 73.1967   1
  11   7  10 599.009 74.6218   2
   7 -11 -10 647.398 71.2844   1
  -7  11  10 645.314 88.4840   1
 -11  -7 -10 594.543 61.1751   1
  11   8   1 578.709 35.2416   1
  11   8  -1 648.738 39.6460   1
 -11  -8  -1 609.110 50.1283   1
 -11  -8   1 639.326 49.7072   1
  -8  11   1 580.146 48.3356   1
  -8  11  -1 705.676 42.4537   1
 -11  -8  -3 199.085 37.2112   1
 -11  -8   3 229.617 48.1805   1
  11   8  -3 191.645 35.4568   1
   8 -11  -3 262.873 31.7059   1
  11   8  -5 641.101 52.1610   1
   8 -11  -5 871.423 59.9199   1
 -11  -8   5 585.727 58.5615   1
  -8  11  -5 631.833 33.2138   1
 -11  -8  -5 794.653 53.3490   1
  11   8  -7 222.720 49.3418   1
  11   8   7 263.295 46.5289   2
  -8  11   7 268.347 69.7898   1
   8 -11  -7 356.216 57.7052   1
 -11  -8   7 196.610 50.8086   1
 -11  -8  -7 323.916 50.4345   1
  -8  11  -7 196.685 31.3046   1
  -8  11  -9 267.717 37.8532   1
   8 -11  -9 343.900 65.4026   1
  11   8  -9 425.031 60.0750   1
 -11  -8   9 371.558 64.5597   1
  11   8   9 317.548 60.7570   2
  -8  11   9 418.345 81.1100   1
 -11  -8  -9 363.379 60.7867   1
 -11  -8 -11 86.7163 58.1183   1
  11   8 -11 228.533 63.5984   1
   8 -11 -11 229.462 66.7945   1
  11   8  11 194.967 66.8085   2
  -8  11  11 169.247 84.4943   1
  11   9   0 442.955 39.8766   1
 -11  -9   0 428.442 52.2685   1
  11   9   2 396.140 35.0593   1
  11   9  -2 480.411 39.8889   1
 -11  -9  -2 285.112 42.8319   1
  -9  11   2 492.639 52.5037   1
 -11  -9   2 373.179 52.0150   1
  -9  11  -2 403.206 35.4190   1
  -9  11   4 159.694 58.5815   1
  11   9  -4 224.508 39.8171   1
 -11  -9   4 103.966 51.3556   1
  -9  11  -4 228.424 33.5615   1
   9 -11  -4 237.227 38.3580   1
 -11  -9  -4 253.872 49.2451   1
  11   9  -6 410.795 52.8784   1
  11   9   6 389.277 44.4738   2
   9 -11  -6 437.797 51.6244   1
  -9  11  -6 455.077 31.8817   1
 -11  -9   6 351.598 61.1465   1
 -11  -9  -6 493.587 49.2987   1
 -11  -9  -8-30.4098 49.7626   1
  11   9  -8-39.3627 49.6223   1
  11   9   8 80.8495 47.7783   2
   9 -11  -8-11.1075 53.8307   1
 -11  -9   8-38.6564 59.1741   1
 -11  -9 -10 203.901 64.3222   1
  11   9 -10 210.416 61.0724   1
 -11  -9  10 190.318 63.4283   1
  11   9  10 128.459 61.7278   2
  -9  11  10 324.689 92.9839   1
   9 -11 -10 176.946 59.1829   1
  11  10   1 1963.43 61.0266   1
 -10  11   1 2204.08 71.5665   1
  11  10  -1 1880.72 65.4145   1
 -11 -10  -1 2102.42 82.6071   1
 -11 -10   1 1719.85 68.6007   1
 -10  11   3 1490.77 72.7399   1
 -11 -10  -3 1419.50 64.9796   1
  11  10  -3 1354.47 57.2042   1
 -11 -10   3 1350.37 71.3890   1
 -10  11   5 1729.78 91.4691   1
  11  10  -5 1359.91 65.9476   1
 -11 -10   5 1034.91 74.0463   1
 -10  11  -5 1291.04 43.8114   1
 -11 -10  -5 1520.44 73.9329   1
 -10  11   7 638.686 86.1778   1
  11  10  -7 403.128 56.8939   1
  11  10   7 545.381 51.1859   2
 -11 -10  -7 550.537 59.0062   1
 -11 -10   7 366.381 63.6048   1
 -11 -10   9 398.371 73.2842   1
  11  10  -9 396.749 63.6782   1
  11  10   9 575.246 66.2196   2
  10 -11  -9 565.329 69.7722   1
 -11 -10  -9 579.937 65.4714   1
  11  11   0 2160.70 69.0359   1
 -11 -11   0 1899.06 84.3249   1
 -11  11   0 2014.03 64.4579   1
  11  11   2 340.102 39.3213   1
  11  11  -2 306.623 45.9899   1
 -11 -11  -2 400.788 55.0102   1
 -11 -11   2 331.397 52.0803   1
 -11  11   2 413.398 52.2487   1
 -11 -11  -4 1605.23 75.9525   1
  11  11  -4 1550.88 67.6843   1
 -11  11  -4 1701.83 45.8854   1
 -11  11   6 142.464 66.7942   1
 -11 -11  -6 125.357 54.5992   1
  11  11  -6 106.570 44.8238   1
 -11 -11   6 128.854 58.2136   1
 -11 -11   8 711.745 76.6426   1
 -11  11   8 743.156 99.7824   1
  11  11  -8 685.097 67.9650   1
  11  11   8 714.157 62.0030   2
 -11 -11  -8 908.979 78.6054   1
 -11 -11 -10 127.175 64.4485   1
  11  11 -10 92.7956 61.4924   1
  11  11  10 28.1714 59.7733   2
  11  12   1 6454.82 114.238   1
  11  12  -1 6787.37 124.643   1
 -11 -12  -1 6313.75 132.358   1
 -11 -12   1 6137.93 121.938   1
 -12  11   1 6091.98 103.426   1
 -12  11  -1 6596.95 97.8013   1
 -12  11  -3 6029.09 82.3711   1
 -11 -12  -3 5707.67 128.838   1
 -12  11   3 5656.32 119.156   1
  11  12  -5 4174.74 100.477   1
 -11 -12   5 4229.62 117.944   1
 -12  11   5 4260.33 131.083   1
  11  12  -7 2270.27 85.4988   1
 -11 -12   7 2409.86 102.943   1
 -11 -12  -7 2036.62 89.8114   1
 -12  11   7 2386.19 119.101   1
 -11 -12   9 1835.48 107.027   1
 -12  11   9 2000.00 130.873   1
  11  12  -9 1728.00 90.6905   1
 -11 -12  -9 1553.37 94.9171   1
 -10 -12   0 65.7914 50.5274   1
  10  12   0 113.537 38.6877   1
 -12  10   0 75.2628 34.8430   1
  10  12   2 51.2841 39.0562   1
  10  12  -2-27.7911 39.6040   1
 -12  10   2-41.4784 41.8425   1
 -10 -12  -2-41.9983 48.5892   1
 -12  10  -2 39.7880 26.3589   1
 -10 -12   2 15.8555 47.5815   1
 -10 -12  -4 463.124 57.2071   1
  10  12  -4 298.164 50.4165   1
 -10 -12   4 188.662 52.0308   1
 -12  10   4 554.855 63.6390   1
 -10 -12  -6 116.490 56.7687   1
  10  12  -6 82.2938 44.4377   1
 -10 -12   6 77.1368 53.6490   1
 -12  10   6 129.989 68.9544   1
 -10 -12   8 326.774 65.2127   1
  10  12  -8 143.956 57.7109   1
 -12  10   8 153.492 83.4754   1
 -10 -12  -8 385.231 69.1385   1
 -10 -12 -10 5.13957 59.8422   1
  10  12 -10 127.157 55.7951   1
  10  12  10-25.4374 57.8382   2
 -12  10  10-8.49137 92.5308   1
   9  12  -1 250.939 43.1841   1
 -12   9  -1 224.671 31.2081   1
   9  12   1 250.142 45.3486   1
  -9 -12   1 269.874 52.6104   1
  -9 -12  -1 250.800 49.9864   1
 -12   9   1 158.535 38.6620   1
  -9 -12  -3 1372.21 70.8139   1
   9  12  -3 1125.01 59.2579   1
 -12   9   3 1286.93 64.0008   1
 -12   9  -3 1130.80 32.7776   1
  -9 -12   3 1111.75 71.9532   1
   9  12   3 1256.66 55.4718   1
   9  12  -5-0.81966 44.9267   1
  -9 -12  -5 0.89011 51.3021   1
 -12   9   5 28.1123 55.4599   1
  -9 -12   5 28.6595 49.2046   1
   9  12  -7 640.045 60.6290   1
  -9 -12  -7 656.814 66.2240   1
  -9 -12   7 716.444 72.4961   1
  -9 -12  -9 31.3591 59.4276   1
 -12   9   9 70.9151 87.2023   1
   9  12  -9 29.3859 58.3539   1
   9  12   9 2.39308 55.0482   2
   8  12   0 28.7379 36.8280   1
 -12   8   0 46.4609 27.9550   1
  -8 -12   0 100.310 43.6583   1
   8  12  -2 2212.37 72.3364   1
  -8 -12  -2 2300.98 86.7285   1
 -12   8   2 2242.22 69.5531   1
  -8 -12   2 2047.91 77.6236   1
   8  12   2 2317.57 72.6626   1
 -12   8  -2 2170.79 42.8354   1
   8  12   4 95.6378 42.9825   1
  -8 -12   4-16.1991 49.6759   1
   8  12  -4 65.4832 43.8318   1
  -8 -12  -4-38.5651 53.1283   1
 -12   8   4 35.9630 49.9164   1
   8  12  -6 418.857 57.0666   1
 -12   8   6 552.900 70.8943   1
   8  12   6 577.630 44.2856   2
  -8 -12  -6 536.130 58.2153   1
  -8 -12   6 430.898 64.1131   1
  -8 -12  -8 97.7636 56.9972   1
   8  12  -8 202.703 52.2193   1
 -12   8   8 143.404 73.5769   1
   8  12   8 111.088 44.6363   2
  -8 -12   8 203.696 60.4673   1
  -8 -12 -10 74.0590 61.1454   1
 -12   8  10 138.516 90.2635   1
   8  12 -10-68.3555 62.6960   1
   8  12  10 72.7238 58.9447   2
  -7 -12  -1 727.053 59.9292   1
  -7 -12   1 679.532 57.8280   1
 -12   7  -1 648.036 30.5835   1
 -12   7   1 804.931 47.4706   1
   7  12   1 751.344 51.7544   1
   7  12  -1 716.435 48.2885   1
  -7 -12  -3 1832.39 75.5562   1
   7  12  -3 1746.61 68.4142   1
 -12   7  -3 1479.60 27.8299   1
  -7 -12   3 1622.28 79.2803   1
 -12   7   3 1756.90 68.8921   1
   7  12   3 1951.84 73.5530   1
   7  12   5 65.2339 37.0150   1
   7  12  -5 19.6555 46.3503   1
  -7 -12  -5 126.069 50.6147   1
  -7 -12   5 59.3438 49.2556   1
   7  12   5 145.558 32.5391   2
 -12   7   5 99.9924 55.3275   1
   7  12  -7 354.734 51.9044   1
 -12   7   7 568.463 71.9283   1
   7  12   7 667.081 53.9097   2
  12  -7  -7 547.432 52.6275   1
  -7 -12  -7 781.218 71.8679   1
  -7 -12   7 456.618 63.4722   1
  -7 -12  -9 38.6844 58.5974   1
   7  12  -9 62.3339 59.6554   1
 -12   7   9-37.8498 76.7386   1
   7  12   9 16.5553 53.5916   2
  12  -7  -9 82.5378 61.4332   1
  -7 -12 -11 174.737 68.1605   1
 -12   7  11 17.6704 86.1911   1
   7  12 -11 6.98788 61.2108   1
   7  12  11 90.0683 62.5154   2
  12  -7 -11-3.46185 64.9061   1
 -12   6   0 7886.72 92.0543   1
   6  12   0 7579.19 120.178   1
  -6 -12  -2 16595.5 186.688   1
  -6 -12   2 17049.8 187.660   1
 -12   6   2 16540.2 144.223   1
   6  12   2 16581.5 168.070   1
 -12   6  -2 17860.4 97.3409   1
   6  12  -2 17423.1 174.119   1
   6  12  -4 1903.39 69.8875   1
   6  12   4 1751.78 74.6140   1
   6  12   4 1971.03 51.3787   2
  -6 -12   4 1814.78 77.4888   1
 -12   6   4 2104.09 79.3690   1
   6  12  -6 3034.73 99.5346   1
   6  12   6 2572.20 69.4766   2
  12  -6  -6 2923.61 78.6609   1
   6  12   6 2753.19 89.1122   1
  -6 -12  -6 2516.82 92.8181   1
 -12   6   6 2794.75 104.090   1
 -12   6   8 449.654 70.8968   1
  -6 -12  -8 363.832 60.4492   1
   6  12  -8 193.505 55.8224   1
   6  12   8 416.667 51.9781   2
  12  -6  -8 281.418 49.7237   1
  -6 -12 -10 146.404 64.1891   1
   6  12 -10 111.312 57.4722   1
 -12   6  10 211.173 81.5933   1
   6  12  10 145.149 60.9391   2
  12  -6 -10 151.060 48.5319   1
  -5 -12  -1 326.319 47.2389   1
 -12   5   1 335.509 35.6640   1
  -5 -12   1 412.202 53.0478   1
   5  12   1 337.231 45.3318   1
 -12   5  -1 336.211 27.1436   1
   5  12  -1 271.264 42.8676   1
 -12   5  -3 733.522 15.1714   1
 -12   5   3 902.421 52.8051   1
  -5 -12   3 770.471 61.9510   1
   5  12   3 971.714 58.8262   1
  -5 -12  -3 818.380 60.6627   1
   5  12  -3 685.835 52.6529   1
   5  12   5 14.0595 40.6278   1
   5  12  -5 29.9451 39.8693   1
  -5 -12  -5 9.75850 45.8126   1
 -12   5   5 106.445 54.6801   1
  -5 -12   5 68.5737 49.7256   1
  12  -5  -5 67.1864 37.5192   1
  -5 -12   7 245.689 47.9624   1
   5  12  -7 560.682 63.2017   1
   5  12   7 489.937 48.5010   2
  12  -5  -7 383.623 44.5945   1
  -5 -12  -7 404.234 52.3372   1
   5  12   7 414.342 49.6891   1
 -12   5   7 546.511 72.5211   1
  -5 -12  -9 123.981 60.2521   1
 -12   5   9-70.9247 65.9395   1
   5  12  -9-60.8421 51.7715   1
   5  12   9 0.13089 47.5408   2
  12  -5  -9-0.75661 49.2099   1
  -5 -12 -11 108.844 63.7040   1
   5  12 -11 128.664 65.2043   1
 -12   5  11 241.138 86.3599   1
   5  12  11-6.28882 63.0864   2
  12  -5 -11 55.4806 61.0030   1
  -4 -12   0 2086.95 77.8039   1
 -12   4   0 1934.87 49.9150   1
  -4 -12  -2 324.657 45.6982   1
 -12   4   2 221.195 37.6693   1
 -12   4  -2 279.377 20.5039   1
   4  12   2 328.433 45.7896   1
  -4 -12   2 180.682 39.9461   1
   4  12  -2 269.389 43.5682   1
 -12   4   4 1339.20 61.8310   1
  12  -4  -4 1355.17 48.5581   1
  -4 -12   4 1182.10 63.8279   1
   4  12   4 1237.11 59.3022   1
  -4 -12  -4 1334.95 68.1517   1
   4  12  -4 1316.02 65.1650   1
  -4 -12  -6 59.9402 50.6933   1
   4  12  -6 42.6591 45.3718   1
 -12   4   6 43.2817 57.0196   1
  -4 -12   6 101.812 40.3985   1
  12  -4  -6 29.0721 36.1081   1
   4  12   6 5.10872 47.3320   1
   4  12  -8 579.880 63.7187   1
  12  -4  -8 587.684 54.4669   1
  -4 -12  -8 573.288 67.9884   1
 -12   4   8 613.963 76.6522   1
   4  12   8 689.779 57.6206   1
  -4 -12 -10 70.4657 61.7430   1
 -12   4  10-68.9066 68.8751   1
  12  -4 -10-49.8076 55.2096   1
   4  12 -10 54.2313 56.1317   1
   4  12  10-11.4829 58.7942   2
   3  12   1 3.63462 40.1048   1
   3  12  -1 44.6008 39.1130   1
 -12   3  -1 2.59030 20.0582   1
  -3 -12  -1-9.34332 40.8966   1
 -12   3   1 26.6798 30.1708   1
  -3 -12   3-6.27069 41.4900   1
   3  12  -3-15.7262 38.8236   1
 -12   3   3-43.9964 42.9835   1
  -3 -12  -3 32.8261 46.2419   1
 -12   3  -3-5.28582 10.5704   1
   3  12   3-4.81461 44.1919   1
  12  -3  -3 44.2063 24.1573   1
   3  12  -5 9.82662 42.1640   1
  -3 -12  -5 69.4925 49.5336   1
  -3 -12   5 45.3797 44.1437   1
 -12   3   5 61.0014 46.0343   1
  12  -3  -5 43.3249 31.2738   1
   3  12   5 91.0028 43.5670   1
  -3 -12  -7 38.9725 56.2724   1
   3  12  -7 77.2867 45.5594   1
 -12   3   7 12.3751 60.3526   1
  12  -3  -7-21.2248 41.2144   1
   3  12   7 9.80387 50.4926   1
  -3 -12  -9-35.1466 58.3088   1
   3  12  -9 0.99200 47.9360   1
  12  -3  -9-24.5218 52.6110   1
 -12   3   9-13.7069 66.6287   1
  -3 -12 -11 62.9013 65.5127   1
 -12   3  11-27.6098 76.1379   1
   3  12 -11-63.9299 60.4890   1
   3  12  11 70.1209 68.3740   2
  12  -3 -11 226.406 67.7555   1
   2  12   0 18.7838 41.6906   1
  -2 -12   0 43.0802 40.3289   1
 -12   2   0 106.118 25.2574   1
  -2 -12  -2 3171.54 85.4597   1
 -12   2  -2 3009.66 45.7531   1
  -2 -12   2 2687.62 77.2158   1
  12  -2  -2 2908.74 48.8791   1
   2  12   2 2821.82 79.4034   1
   2  12  -2 2621.03 77.5619   1
 -12   2   2 2657.63 69.7725   1
   2  12  -4-31.1928 41.0051   1
 -12   2   4-24.0009 43.5569   1
  -2 -12  -4-33.5708 43.1677   1
  -2 -12   4-36.4712 36.9258   1
  12  -2  -4 17.3267 28.5458   1
   2  12   4 67.6951 46.1839   1
 -12   2  -4-14.1002 11.3121   1
  -2 -12   6 953.079 54.0921   1
   2  12  -6 1023.02 59.4380   1
 -12   2   6 1207.40 73.4568   1
  12  -2  -6 1112.83 54.8125   1
   2  12   6 1172.88 65.4117   1
  -2 -12  -6 1329.12 74.2764   1
  -2 -12  -8 14.0519 55.7953   1
   2  12  -8-24.1966 51.4056   1
 -12   2   8 42.5541 63.4532   1
  12  -2  -8-20.6176 46.2170   1
   2  12   8-42.6659 50.8187   1
  -2 -12 -10 212.275 67.3510   1
   2  12 -10 122.759 53.1339   1
  12  -2 -10 243.674 59.5588   1
 -12   2  10 170.540 78.2909   1
 -12   2  12-58.8987 85.4786   1
   2  12 -12 56.7387 61.2619   1
   2  12  12 185.108 76.5087   2
  12  -2 -12 108.113 67.2230   1
  -2 -12 -12-30.8472 67.4573   1
   1  12   1 250.792 43.7327   1
 -12   1   1 77.6124 29.4339   1
  -1 -12  -1 29.1082 41.1430   1
  -1 -12   1 90.7530 41.9819   1
   1  12  -1 307.920 51.4140   1
 -12   1  -1 24.2118 21.5107   1
   1  12  -3 133.785 42.3580   1
  -1 -12   3 112.956 40.8702   1
  -1 -12  -3 81.0576 45.3563   1
 -12   1  -3 43.6738 15.2716   1
  12  -1  -3 33.9782 24.9624   1
 -12   1   3 52.8916 34.5275   1
   1  12   3 47.4579 41.4141   1
 -12   1   5 440.100 58.8460   1
  12  -1  -5 467.426 39.4443   1
   1  12   5 363.882 53.4608   1
  -1 -12  -5 325.968 53.1004   1
  -1 -12   5 339.888 43.1791   1
   1  12  -5 372.537 45.8961   1
  -1 -12  -7 4.15203 53.5609   1
  12  -1  -7 145.709 42.9879   1
   1  12  -7 85.7977 41.3514   1
 -12   1   7 107.430 54.5340   1
   1  12   7 16.6175 56.5198   1
   1  12  -9 1254.94 74.4950   1
  12  -1  -9 963.051 67.4084   1
 -12   1   9 836.968 83.8656   1
  -1 -12  -9 947.473 72.4328   1
   1  12   9 1149.93 83.3685   1
   1  12 -11 43.5677 58.2536   1
  12  -1 -11 2.11271 56.7810   1
 -12   1  11 127.730 79.8306   1
  -1 -12 -11 15.9392 66.2109   1
   0 -12   0 967.852 53.3274   1
 -12   0   0 976.833 42.8695   1
 -12   0  -2 3040.35 51.3348   1
   0 -12   2 2822.70 77.3169   1
  12   0  -2 3029.37 54.9208   1
   0  12   2 3357.21 87.7355   1
 -12   0   2 2667.55 73.4049   1
   0  12  -2 2937.34 81.1077   1
   0 -12  -2 3244.22 82.1761   1
 -12   0   4 1154.63 65.6626   1
  12   0  -4 1341.50 52.1206   1
   0 -12   4 1233.40 55.0700   1
   0  12   4 1583.00 73.5465   1
 -12   0  -4 1287.45 30.9493   1
   0 -12  -4 1652.09 75.5406   1
   0  12  -4 1236.74 60.7365   1
 -12   0   6 492.854 57.9564   1
  12   0  -6 512.066 50.0802   1
 -12   0  -6 527.916 27.1106   1
   0  12   6 521.402 60.7148   1
   0  12  -6 496.163 49.5626   1
   0  12  -8 987.703 59.1931   1
  12   0  -8 1179.91 70.6292   1
 -12   0   8 1265.78 75.2991   1
 -12   0  -8 950.904 35.5051   1
   0 -12  -8 1052.62 74.9263   1
   0  12 -10 97.8043 51.5273   1
 -12   0  10 26.1900 69.8889   1
   0  12  10 100.795 62.0953   1
  12   0 -10 200.595 66.7405   1
   0 -12 -10 64.2484 64.4363   1
 -12   0  12 591.427 94.8065   1
   0  12 -12 505.223 71.4165   1
  12   0 -12 506.338 72.6479   1
   0 -12 -12 511.558 72.1651   1
   1 -12  -1 348.171 48.3146   1
 -12  -1  -1 308.082 31.6074   1
   1 -12   1 480.780 47.1212   1
  -1  12  -1 369.246 43.1569   1
  12   1  -1 334.164 23.1769   1
 -12  -1   1 315.812 37.3423   1
  -1  12   1 375.401 49.3550   1
  12   1  -3 275.470 30.2414   1
   1 -12   3 334.057 39.0405   1
  -1  12   3 333.428 53.4090   1
 -12  -1   3 346.751 47.8418   1
  -1  12  -3 353.431 46.7309   1
   1 -12  -3 371.237 46.2116   1
 -12  -1  -3 300.184 23.5814   1
 -12  -1   5 1512.47 75.5374   1
  12   1  -5 1707.95 61.4363   1
 -12  -1  -5 1808.85 43.2300   1
   1 -12  -5 1800.82 71.4334   1
  -1  12  -5 1600.50 63.1112   1
  -1  12  -7 596.861 50.9631   1
 -12  -1   7 591.515 64.4039   1
  12   1  -7 804.275 58.4156   1
 -12  -1  -7 729.416 35.3831   1
  -1  12   7 702.480 70.3688   1
   1 -12  -7 865.523 69.0139   1
  -1  12  -9 774.298 63.8921   1
  12   1  -9 914.155 68.4304   1
 -12  -1   9 912.389 86.2734   1
 -12  -1  -9 807.735 47.9977   1
   1 -12  -9 902.590 77.5482   1
  -1  12   9 901.306 82.9277   1
  -1  12 -11 195.497 56.9169   1
  12   1 -11 217.474 67.7816   1
 -12  -1  11 318.245 82.3624   1
   1 -12 -11 243.224 65.3503   1
   2 -12   0 1208.59 56.0559   1
  12   2   0 1157.63 29.8027   1
 -12  -2   0 1128.62 45.1988   1
  -2  12   0 1239.60 60.0860   1
 -12  -2   2 79.1659 38.2083   1
   2 -12  -2 125.814 40.8334   1
 -12  -2  -2 86.0711 25.8767   1
  12   2  -2 78.9478 23.3982   1
  -2  12   2 46.8749 47.0105   1
  -2  12  -2 16.8837 35.9207   1
   2 -12   2 81.8079 30.9580   1
  12   2  -4 407.820 35.0747   1
  -2  12   4 413.489 59.9516   1
   2 -12  -4 540.148 54.6934   1
  -2  12  -4 477.023 47.3630   1
 -12  -2  -4 387.809 27.4974   1
 -12  -2   4 341.533 46.5019   1
 -12  -2  -6 2.77586 25.4605   1
 -12  -2   6-11.7102 56.3230   1
   2 -12  -6 72.8337 53.4946   1
  -2  12  -6 7.95132 37.8028   1
  12   2  -6 63.6891 38.5691   1
  -2  12   6 15.3508 56.3587   1
   2 -12  -8 4.53716 54.9954   1
  -2  12  -8 70.0913 39.7221   1
  12   2  -8 82.4574 49.7867   1
 -12  -2   8-7.84286 56.2581   1
  -2  12   8 65.3941 61.8448   1
 -12  -2  -8 45.8853 33.7233   1
 -12  -2  10 81.8921 70.1841   1
  -2  12 -10 53.9107 51.9613   1
  12   2 -10 19.3981 58.1505   1
 -12  -2 -10 24.4983 38.5094   1
  -2  12  10 109.452 67.5720   1
   2 -12 -10-37.7227 62.7188   1
  -2  12 -12-20.0304 54.3819   1
  12   2 -12 10.0113 65.0848   1
 -12  -2  12 64.3509 78.5778   1
 -12  -2 -12 1.60717 40.5043   1
   2 -12 -12 44.5949 69.0266   1
   3 -12  -1 6634.49 113.113   1
 -12  -3  -1 5244.93 80.3519   1
  12   3  -1 5625.32 71.9062   1
   3 -12   1 6534.70 98.4276   1
 -12  -3   1 5577.72 98.5776   1
  -3  12   1 6208.09 117.390   1
  -3  12  -1 5965.46 104.913   1
 -12  -3  -3 1542.92 43.6700   1
  12   3  -3 1479.82 50.4662   1
   3 -12   3 1328.50 42.7414   1
  -3  12   3 1669.95 76.1415   1
 -12  -3   3 1337.85 66.5095   1
  -3  12  -3 1488.45 59.5131   1
   3 -12  -3 1581.29 64.6892   1
 -12  -3   5 5477.92 126.716   1
  12   3  -5 6169.84 105.269   1
  -3  12   5 6751.09 139.093   1
 -12  -3  -5 6441.31 84.2546   1
   3 -12  -5 6426.68 117.821   1
  -3  12  -5 5615.07 97.4957   1
   3 -12  -7 103.230 53.7313   1
  -3  12  -7 70.2916 35.2991   1
 -12  -3   7 130.932 60.9468   1
  12   3  -7 135.156 42.8566   1
 -12  -3  -7 187.295 36.7474   1
  -3  12   7 269.694 64.1018   1
  -3  12  -9 1913.84 71.3528   1
  12   3  -9 2396.87 90.9254   1
 -12  -3   9 2193.96 99.8613   1
 -12  -3  -9 2442.22 75.3545   1
   3 -12  -9 2937.09 114.011   1
  -3  12   9 2678.12 117.398   1
  -3  12 -11-42.3628 48.7823   1
 -12  -3  11 49.5146 70.2568   1
  12   3 -11-31.3228 60.5133   1
  12   3  11 41.8988 66.8354   2
  -3  12  11 87.9631 71.7160   1
 -12  -3 -11 102.529 44.5288   1
   3 -12 -11 129.144 68.2994   1
   4 -12   0 97451.9 385.054   1
  12   4   0 99050.9 256.728   1
 -12  -4   0 99936.3 362.007   1
  -4  12   0 96217.4 432.501   1
 -12  -4  -2 2158.81 58.1868   1
  12   4  -2 2733.62 59.4545   1
   4 -12   2 2220.70 52.1463   1
 -12  -4   2 2709.13 80.3078   1
  -4  12   2 2184.01 85.3233   1
  -4  12  -2 3173.43 79.6189   1
   4 -12  -2 2181.07 69.1296   1
  12   4  -4 55623.7 270.745   1
  -4  12   4 52592.5 346.110   1
 -12  -4   4 56181.9 353.055   1
  -4  12  -4 55618.5 278.378   1
   4 -12  -4 53617.8 330.262   1
 -12  -4  -4 54818.4 252.700   1
 -12  -4   6 2629.81 97.0762   1
  12   4  -6 2797.30 81.9412   1
  -4  12   6 3647.62 109.869   1
   4 -12  -6 4337.17 111.816   1
 -12  -4  -6 3306.99 76.2949   1
  -4  12  -6 5012.68 93.7666   1
  -4  12  -8 13474.1 151.702   1
  12   4  -8 12721.9 178.027   1
 -12  -4  -8 12520.6 152.712   1
  -4  12   8 14050.6 211.511   1
   4 -12  -8 13772.0 202.761   1
  -4  12 -10 2538.08 90.3159   1
  12   4 -10 2123.69 88.8855   1
 -12  -4  10 2003.07 94.5354   1
  12   4  10 2341.68 102.167   2
 -12  -4 -10 1982.25 73.1230   1
   4 -12 -10 2720.65 106.825   1
  -4  12  10 2428.62 111.872   1
   5 -12  -1 490.221 40.5794   1
  12   5   1 408.307 23.9045   1
  12   5  -1 427.416 30.6866   1
 -12  -5  -1 458.737 42.6077   1
   5 -12   1 531.636 33.0126   1
 -12  -5   1 520.499 50.5650   1
  -5  12   1 525.760 53.5825   1
  -5  12  -1 620.121 50.9396   1
 -12  -5  -3 429.513 36.9135   1
  12   5  -3 391.651 35.4215   1
 -12  -5   3 336.522 51.3825   1
  -5  12  -3 398.995 40.8454   1
   5 -12  -3 508.094 45.5791   1
  -5  12   3 482.210 50.0286   1
  -5  12  -5 185.973 37.7291   1
  12   5  -5 274.356 42.9520   1
 -12  -5   5 170.418 56.0889   1
  -5  12   5 179.786 53.9958   1
   5 -12  -5 271.679 48.8698   1
 -12  -5  -5 189.081 37.1079   1
 -12  -5   7 28.7566 57.7579   1
   5 -12  -7 39.2439 53.7536   1
 -12  -5  -7 26.5739 40.0998   1
  -5  12  -7 86.1938 34.7294   1
  12   5  -7-19.7313 44.5563   1
  -5  12   7 82.2777 58.5048   1
  -5  12  -9 9.79466 40.0223   1
 -12  -5   9 134.543 59.5685   1
  12   5  -9-48.1827 54.4286   1
  12   5   9 57.2362 56.1068   2
  -5  12   9 3.88058 64.0294   1
   5 -12  -9 88.5390 66.1272   1
 -12  -5  -9 97.5198 48.4130   1
 -12  -5  11-72.3946 81.2830   1
  -5  12 -11 68.6886 49.2489   1
  12   5 -11-67.5137 58.9366   1
  12   5  11-13.4234 70.9728   2
  -5  12  11 148.450 76.9776   1
 -12  -5 -11-10.8267 50.1562   1
   5 -12 -11 107.309 69.8573   1
  12   6   0 226.381 25.8343   1
   6 -12   0 320.125 30.5892   1
 -12  -6   0 305.894 44.1894   1
  -6  12   0 281.151 44.5632   1
 -12  -6  -2 568.129 42.2671   1
  12   6  -2 583.382 35.8101   1
 -12  -6   2 600.275 53.0490   1
  -6  12   2 556.210 47.9978   1
  -6  12  -2 767.910 47.9751   1
   6 -12  -2 740.382 41.4734   1
   6 -12  -4-1.91132 40.0293   1
 -12  -6  -4 4.35687 34.4082   1
 -12  -6   4-50.6572 49.4349   1
  12   6  -4 33.4654 34.4044   1
  -6  12   4-61.9613 51.4165   1
  -6  12  -4 4.02304 31.1711   1
  12   6  -6 743.919 52.2702   1
  -6  12   6 742.398 71.0386   1
   6 -12  -6 980.478 67.9383   1
 -12  -6  -6 834.915 56.3047   1
  -6  12  -6 641.338 40.7469   1
 -12  -6   6 548.678 67.2449   1
   6 -12  -8 28.8449 56.8798   1
 -12  -6  -8 4.51900 45.7012   1
  -6  12  -8 50.4774 34.1727   1
 -12  -6   8-8.29172 61.1806   1
  12   6  -8-73.4676 46.4432   1
  12   6   8-25.7527 50.7290   2
  -6  12   8 1.79555 64.8102   1
  -6  12 -10 134.833 48.1417   1
  -6  12  10 145.868 70.3149   1
  12   6 -10 156.243 58.2113   1
  12   6  10 171.340 66.3579   2
 -12  -6  10 66.5739 60.8233   1
   6 -12 -10 254.411 71.7664   1
 -12  -6 -10 192.558 52.0037   1
  12   7   1 258.192 26.2061   1
  12   7  -1 222.191 29.9057   1
 -12  -7  -1 296.526 45.9303   1
 -12  -7   1 195.831 40.4971   1
  -7  12   1 349.988 45.4777   1
  -7  12  -1 324.421 41.7533   1
 -12  -7  -3 310.321 40.1183   1
  12   7  -3 351.232 37.6539   1
 -12  -7   3 349.636 51.4096   1
  -7  12   3 493.144 57.1963   1
  -7  12  -3 448.860 40.6778   1
   7 -12  -3 445.718 40.4180   1
  12   7  -5 393.169 45.8368   1
  -7  12   5 538.866 68.3573   1
  -7  12  -5 367.142 37.2279   1
 -12  -7   5 351.880 59.4925   1
 -12  -7  -5 403.705 45.7401   1
   7 -12  -5 401.208 45.8965   1
   7 -12  -7 111.383 53.5981   1
  -7  12  -7 60.5188 34.0581   1
 -12  -7  -7 87.9744 44.6974   1
  12   7  -7-6.01967 42.3452   1
  -7  12   7 19.0427 64.0718   1
 -12  -7   7 136.721 55.3867   1
  -7  12  -9 454.841 43.7337   1
  12   7  -9 660.031 64.3255   1
 -12  -7   9 437.318 73.9025   1
  12   7   9 786.741 73.1444   2
  -7  12   9 819.151 90.2846   1
   7 -12  -9 723.175 77.9237   1
 -12  -7  -9 602.027 62.9783   1
 -12  -7 -11-10.3954 54.1460   1
  -7  12 -11-17.2322 44.6497   1
  12   7 -11-13.2703 60.1197   1
  12   7  11-13.8274 68.1211   2
  -7  12  11-26.7969 68.5045   1
 -12  -7  11 24.7060 57.7313   1
   7 -12 -11 100.258 69.5370   1
  12   8   0 941.013 40.2385   1
 -12  -8   0 1055.55 62.9315   1
  -8  12   0 1150.44 56.1741   1
 -12  -8   2 35.0678 44.4929   1
  12   8  -2-4.44762 28.5650   1
 -12  -8  -2 15.9007 39.7360   1
  -8  12  -2 1.07397 35.5317   1
  -8  12   2-48.2640 46.5670   1
 -12  -8  -4 831.323 52.9987   1
  12   8  -4 712.750 50.7055   1
  -8  12   4 761.814 68.9574   1
  -8  12  -4 761.383 43.2091   1
   8 -12  -4 804.168 51.6236   1
  -8  12  -6 56.2027 30.8580   1
   8 -12  -6-36.7744 47.8069   1
 -12  -8  -6 21.0190 39.6848   1
  12   8  -6 4.68985 40.6789   1
 -12  -8   6-37.4500 52.9907   1
  -8  12   6 60.2457 65.4198   1
 -12  -8   8 199.015 63.1336   1
  12   8  -8 227.351 52.6956   1
  12   8   8 266.570 53.8164   2
   8 -12  -8 347.053 64.5445   1
 -12  -8  -8 290.508 51.3333   1
  -8  12  -8 220.300 34.6632   1
 -12  -8 -10 32.6454 58.5487   1
  12   8 -10 5.23518 52.7593   1
 -12  -8  10-12.7333 60.5624   1
  12   8  10-92.6259 62.2348   2
  -8  12  10-18.1686 80.0057   1
   8 -12 -10-11.2141 58.8368   1
  12   9   1 8500.29 105.327   1
  12   9  -1 8366.78 106.065   1
 -12  -9  -1 8758.85 139.349   1
 -12  -9   1 8249.06 132.202   1
  -9  12   1 9791.01 136.602   1
  -9  12  -1 9452.33 119.192   1
 -12  -9  -3 6914.76 130.147   1
  12   9  -3 7790.47 119.851   1
 -12  -9   3 8293.58 146.189   1
  -9  12  -3 7482.25 103.578   1
  12   9  -5 9587.45 144.411   1
 -12  -9   5 9546.32 171.159   1
 -12  -9   7 742.662 74.4795   1
  12   9  -7 922.410 63.8894   1
  12   9   7 795.639 57.3618   2
   9 -12  -7 926.151 68.6047   1
 -12  -9  -7 818.263 64.1313   1
  -9  12  -7 846.870 40.4892   1
   9 -12  -9 4860.31 133.338   1
 -12  -9   9 3920.50 140.341   1
  12   9  -9 4329.97 117.928   1
  12   9   9 4531.31 119.678   2
 -12  -9  -9 4273.49 114.696   1
  12  10   0 23.9237 33.6981   1
 -12 -10   0 19.2754 48.2581   1
 -10  12   0-10.3466 38.8586   1
  12  10  -2 711.551 47.1347   1
 -12 -10  -2 930.275 64.5137   1
 -12 -10   2 649.188 58.3405   1
 -10  12  -2 850.809 42.5592   1
 -10  12   4-60.5425 60.2005   1
 -12 -10   4-39.1025 51.4414   1
  12  10  -4-9.30314 39.8925   1
 -12 -10  -4 10.5122 46.4565   1
 -10  12  -4-6.58382 32.8623   1
  12  10  -6 251.138 50.3654   1
 -12 -10   6 309.445 61.9527   1
 -12 -10  -6 334.173 58.2320   1
 -12 -10  -8 187.550 62.4586   1
  12  10  -8 17.1233 51.4846   1
  12  10   8 73.1778 53.2045   2
 -10  12   8 118.359 83.2353   1
 -12 -10   8 144.122 64.7526   1
 -12 -10 -10-33.5142 57.3599   1
 -12 -10  10 28.9895 65.7209   1
  12  10 -10-39.2299 56.8634   1
  12  10  10 163.607 62.8306   2
 -10  12  10 18.2590 85.4235   1
  12  11   1 1202.86 57.1672   1
  12  11  -1 1059.96 56.4449   1
 -11  12   1 1336.62 66.5497   1
 -12 -11  -1 895.112 61.0827   1
 -12 -11   1 761.499 59.0869   1
 -11  12  -1 1148.75 53.4786   1
 -12 -11  -3 557.384 56.6320   1
 -11  12   3 602.440 66.3040   1
  12  11  -3 412.354 44.7700   1
 -12 -11   3 466.048 60.8730   1
 -11  12  -3 549.413 38.5604   1
 -12 -11  -5 1169.30 69.5259   1
  12  11  -5 1040.66 63.2073   1
 -11  12   5 1133.13 89.2970   1
 -12 -11  -7 147.550 60.5793   1
  12  11  -7-12.5347 48.4666   1
 -12 -11   7 55.9577 62.8091   1
 -11  12   7-36.6204 76.8612   1
 -12 -11   9 514.916 78.9109   1
  12  11  -9 448.144 65.5385   1
 -12 -11  -9 486.396 73.5694   1
  12  12   0 216.743 44.9356   1
 -12 -12   0 130.547 54.2412   1
 -12  12   0 106.770 42.9231   1
 -12  12   2-9.27604 46.8555   1
  12  12  -2-52.6887 41.7968   1
 -12 -12  -2 22.9871 46.6372   1
 -12  12  -2-11.2668 32.9163   1
 -12 -12   2-54.8195 50.9978   1
 -12  12   4 91.0169 59.5843   1
 -12 -12   4 9.56153 50.7207   1
  12  12  -4 27.2933 40.3868   1
 -12 -12  -4 42.0464 48.2255   1
 -12 -12  -6 23.7786 55.0564   1
  12  12  -6 26.4849 42.0755   1
 -12 -12   6 21.0407 53.6296   1
 -12  12   6 93.1688 70.4178   1
 -12 -12  -8-24.0328 57.9136   1
 -12 -12   8 12.8726 58.1475   1
  12  12  -8 74.6596 56.4061   1
 -12  12   8 89.3141 84.1286   1
  12  13   1 139.278 40.1452   1
  12  13  -1 186.069 48.1578   1
 -12 -13  -1 110.597 49.1892   1
 -13  12   1 93.8614 43.2551   1
 -13  12  -1-3.39341 36.9876   1
 -12 -13   1 169.163 50.9555   1
 -12 -13   3-1.32243 52.1789   1
  12  13  -3-34.3127 42.1198   1
 -12 -13  -3-46.7333 52.7581   1
 -13  12   3-61.7094 54.1467   1
 -13  12  -3-3.86662 31.1608   1
  12  13  -5 210.120 48.0925   1
 -12 -13   5 195.780 56.7701   1
 -12 -13  -5 223.932 53.4031   1
 -13  12   5 354.307 69.6745   1
 -12 -13  -7 23.3666 58.2631   1
  12  13  -7 76.7148 52.9598   1
 -13  12   7-30.1533 75.6554   1
 -12 -13   7 28.3795 53.6192   1
  11  13   0 49.9169 41.2324   1
 -11 -13   0 9.40834 54.8086   1
 -13  11   0 30.6036 36.4371   1
  11  13   2 507.317 49.7777   1
  11  13  -2 453.866 54.0889   1
 -11 -13  -2 459.495 61.6347   1
 -11 -13   2 325.246 55.9202   1
 -13  11   2 540.468 54.0532   1
 -13  11  -2 486.153 36.8109   1
 -11 -13   4 6.22341 52.6568   1
  11  13  -4-6.37263 45.5231   1
 -11 -13  -4-17.6574 50.5243   1
 -13  11   4-31.3637 55.5197   1
  11  13  -6 35.0109 48.0463   1
 -11 -13  -6-10.6328 56.5289   1
 -11 -13   6 16.1052 56.0845   1
 -13  11   8-126.157 83.0635   1
 -11 -13  -8-82.4915 59.8561   1
  11  13  -8-0.17333 56.4698   1
  10  13   1 2397.74 78.5589   1
  10  13  -1 2212.95 75.5657   1
 -10 -13  -1 2268.89 93.6495   1
 -13  10  -1 2215.59 55.5574   1
 -10 -13   1 2199.51 83.3944   1
  10  13  -3 1855.79 76.3400   1
 -10 -13  -3 2157.96 93.7455   1
 -13  10   3 2137.18 80.8227   1
 -10 -13   3 1763.37 83.5251   1
  10  13   3 2006.42 71.5908   1
  10  13  -5 1235.46 70.2510   1
 -10 -13  -5 1436.39 77.2110   1
  10  13  -7 481.537 60.8989   1
 -13  10   7 805.448 87.3341   1
 -10 -13   7 463.567 61.9087   1
 -10 -13  -7 840.796 76.4859   1
 -10 -13  -9 1015.94 85.1784   1
 -13  10   9 1183.91 111.033   1
   9  13   0 426.969 53.3937   1
  -9 -13   0 531.416 62.2104   1
 -13   9   0 519.976 43.0557   1
   9  13  -2 474.234 50.3052   1
 -13   9   2 204.114 44.7143   1
  -9 -13   2 384.821 58.0186   1
  -9 -13  -2 200.181 53.2596   1
 -13   9  -2 179.571 25.6011   1
   9  13   2 298.352 46.4574   1
  -9 -13  -4 342.286 57.5288   1
 -13   9   4 345.868 55.8523   1
   9  13   4 402.675 47.0249   1
  -9 -13  -6 15.2044 59.3412   1
   9  13  -6 127.083 47.3276   1
 -13   9   6 138.807 64.0387   1
  -9 -13   6 77.4131 54.9673   1
   9  13  -8 560.528 61.2003   1
 -13   9   8 570.494 86.4051   1
  -9 -13  -8 608.010 68.0451   1
  -9 -13 -10-2.54830 62.0397   1
 -13   9  10-149.726 85.8205   1
  -8 -13   1 49.9827 48.6776   1
   8  13   1 112.935 39.8072   1
   8  13  -1 12.0253 47.6078   1
 -13   8  -1 7.27980 26.5256   1
 -13   8   1 61.3470 34.1122   1
  -8 -13  -1-28.2307 48.8308   1
  -8 -13   3-47.3815 49.8746   1
   8  13   3-11.6049 41.5526   1
   8  13  -3 19.6033 40.5587   1
  -8 -13  -3 25.6003 49.3833   1
 -13   8   3 70.7397 47.2441   1
   8  13   5 117.608 47.3082   1
   8  13  -5 167.430 52.3663   1
  -8 -13  -5 96.4971 56.7381   1
  -8 -13   5 86.2719 52.3163   1
 -13   8   5 160.458 60.5463   1
  -8 -13  -7 50.6043 52.2810   1
 -13   8   7 51.6126 69.1939   1
   8  13  -7 100.072 50.6754   1
  -8 -13   7 155.270 59.4131   1
  -8 -13  -9 70.4336 60.7175   1
   8  13  -9 194.465 60.3469   1
   8  13   9 159.639 51.2413   2
 -13   8   9 27.0580 77.5481   1
  -7 -13   0 1501.64 71.4051   1
 -13   7   0 1506.13 45.5707   1
   7  13   0 1681.99 67.1795   1
   7  13  -2 1959.41 79.7059   1
  -7 -13  -2 1864.32 81.1142   1
 -13   7  -2 1706.05 39.1208   1
  -7 -13   2 1733.05 72.6771   1
 -13   7   2 1871.90 67.9183   1
   7  13   2 1949.28 75.1540   1
   7  13  -4 477.474 53.2985   1
  -7 -13   4 377.066 54.9007   1
 -13   7   4 500.761 59.2676   1
   7  13   4 433.132 48.5533   1
  -7 -13  -4 617.195 64.3734   1
   7  13  -6 1228.86 76.6462   1
  -7 -13   6 1010.46 75.3536   1
   7  13   6 1331.44 70.2352   1
  -7 -13  -6 1128.82 70.4866   1
  -7 -13  -8 61.2124 57.3983   1
 -13   7   8 144.480 74.4800   1
   7  13  -8 15.8726 55.3161   1
   7  13   8 76.1409 49.7414   2
  -7 -13 -10 275.332 62.0614   1
   7  13 -10 160.338 59.8987   1
   7  13  10 421.571 65.2266   2
 -13   7  10 297.853 87.2098   1
   6  13  -1 212.187 44.9161   1
 -13   6  -1 292.870 29.0154   1
  -6 -13  -1 417.831 57.3602   1
  -6 -13   1 371.719 56.3881   1
 -13   6   1 313.084 36.4561   1
   6  13   1 357.236 50.7539   1
   6  13  -3 735.919 63.5211   1
  -6 -13  -3 819.719 64.0765   1
  -6 -13   3 621.262 61.2436   1
 -13   6   3 710.954 56.7258   1
   6  13   3 613.557 53.5166   1
   6  13  -5 50.2428 47.2716   1
  -6 -13  -5 153.443 56.8352   1
  -6 -13   5 62.1103 52.3715   1
 -13   6   5 125.017 53.8621   1
   6  13   5 174.696 33.8670   2
  -6 -13  -7 94.8918 57.8018   1
   6  13  -7-20.9512 54.2125   1
   6  13   7 86.3391 42.1292   2
  -6 -13   7 176.872 54.4513   1
 -13   6   7 114.262 67.5487   1
  -6 -13  -9 70.2594 55.4183   1
 -13   6   9 93.9988 71.2399   1
   6  13  -9 136.620 55.6749   1
   6  13   9 185.485 57.1628   2
  -6 -13 -11-29.2460 67.0728   1
   6  13 -11-21.1028 64.2142   1
   6  13  11-53.1817 64.6301   2
 -13   6  11-34.9294 86.2739   1
   5  13   0 109.674 45.1630   1
  -5 -13   0 106.307 49.4639   1
 -13   5   0 94.8637 28.6504   1
  -5 -13  -2 6389.90 120.897   1
 -13   5   2 5696.79 96.2489   1
  -5 -13   2 5437.63 111.552   1
 -13   5  -2 5266.54 59.5097   1
   5  13   2 6041.65 116.500   1
   5  13  -2 5824.51 113.441   1
   5  13   4 67.3400 47.7543   1
   5  13  -4 66.4766 46.8872   1
  -5 -13   4 109.580 50.0113   1
 -13   5   4 80.4910 44.5163   1
  -5 -13  -4 251.316 59.2201   1
   5  13  -6 1825.95 77.3403   1
   5  13   6 2023.17 63.5414   2
 -13   5   6 2071.85 94.1525   1
   5  13   6 1980.90 78.9961   1
  -5 -13   6 1668.24 79.0227   1
  -5 -13  -6 2289.12 96.3972   1
  -5 -13  -8-84.0653 51.2623   1
   5  13  -8 64.9228 53.7416   1
 -13   5   8 60.7269 70.6437   1
   5  13   8 84.2415 46.3768   2
  13  -5  -8-20.6235 41.4801   1
 -13   5  10 220.617 81.4787   1
   5  13 -10 91.5695 55.6948   1
   5  13  10 344.298 64.1819   2
  13  -5 -10 246.269 56.5011   1
  -5 -13 -10 352.592 73.4416   1
  -4 -13  -1 8055.05 134.373   1
  -4 -13   1 7747.93 142.966   1
   4  13   1 8189.36 137.193   1
   4  13  -1 8176.17 133.618   1
 -13   4  -3 1820.77 30.0972   1
 -13   4   3 1854.59 68.8867   1
  -4 -13   3 1832.57 81.7579   1
   4  13   3 1932.52 76.7083   1
   4  13  -3 1660.65 66.3086   1
  -4 -13  -3 1972.26 78.1387   1
   4  13  -5 10175.3 152.945   1
 -13   4   5 8480.09 132.831   1
  13  -4  -5 8742.58 111.717   1
  -4 -13   5 10802.5 168.617   1
   4  13   5 9271.07 152.550   1
  -4 -13  -5 9014.02 148.379   1
   4  13  -7 359.752 60.4947   1
 -13   4   7 161.345 66.7691   1
  13  -4  -7 232.423 45.8419   1
   4  13   7 385.228 58.2677   1
  -4 -13  -7 326.703 61.0106   1
 -13   4   9 4587.84 147.240   1
   4  13  -9 4140.88 111.891   1
  13  -4  -9 4374.14 111.781   1
   4  13   9 4578.54 111.485   2
  -4 -13  -9 4628.07 132.296   1
  -4 -13 -11 36.3582 63.9304   1
 -13   4  11 116.493 81.6279   1
   4  13 -11 78.3721 58.0051   1
   4  13  11 69.9856 63.1723   2
  13  -4 -11 64.9288 58.5279   1
  -3 -13   0 3773.42 103.421   1
   3  13   0 3648.02 96.3857   1
  -3 -13  -2 1106.49 62.8581   1
 -13   3   2 1125.65 53.7225   1
  -3 -13   2 941.510 57.4522   1
 -13   3  -2 1094.45 31.8099   1
   3  13   2 1063.88 61.1375   1
   3  13  -2 954.903 63.3360   1
 -13   3   4 1571.15 71.0083   1
  13  -3  -4 1762.27 52.0176   1
  -3 -13   4 1682.32 71.2162   1
   3  13   4 1905.75 80.3842   1
  -3 -13  -4 2054.48 83.4844   1
   3  13  -4 1528.53 67.7861   1
   3  13  -6 646.858 58.6411   1
   3  13   6 727.987 61.2008   1
  13  -3  -6 595.008 45.5833   1
 -13   3   6 747.844 61.5141   1
  -3 -13  -6 793.511 71.8059   1
  -3 -13   6 595.594 54.4554   1
   3  13  -8 384.297 61.8003   1
  13  -3  -8 448.392 53.5663   1
 -13   3   8 587.392 78.8317   1
  -3 -13  -8 500.187 71.2673   1
   3  13   8 369.850 59.4952   1
 -13   3  10 531.528 88.2638   1
   3  13 -10 495.843 61.0229   1
  13  -3 -10 682.691 68.1094   1
  -2 -13  -1 530.379 50.6849   1
  -2 -13   1 612.879 57.0681   1
 -13   2  -1 480.768 30.6444   1
   2  13   1 599.904 54.5870   1
 -13   2   1 557.835 42.9228   1
   2  13  -1 637.800 57.4116   1
  -2 -13   3 23.7654 42.3982   1
   2  13  -3 15.2936 45.6901   1
  -2 -13  -3 65.1282 48.3604   1
 -13   2  -3 14.0876 15.6133   1
  13  -2  -3 25.2658 24.0645   1
   2  13   3-2.51986 44.0018   1
 -13   2   3 41.7179 39.4345   1
 -13   2   5 1157.08 69.3927   1
  13  -2  -5 1269.28 54.7107   1
   2  13   5 1319.89 76.2950   1
  -2 -13   5 1029.57 58.5003   1
  -2 -13  -5 1414.74 81.4823   1
   2  13  -5 1186.62 63.4136   1
  -2 -13  -7 337.675 54.7664   1
   2  13  -7 181.101 47.8538   1
  13  -2  -7 249.457 43.3352   1
 -13   2   7 320.949 65.7243   1
   2  13   7 349.240 54.1912   1
   2  13  -9 604.941 67.0725   1
  13  -2  -9 781.157 67.3558   1
 -13   2   9 696.713 83.9936   1
  -2 -13  -9 889.885 75.5088   1
   2  13   9 636.271 66.8153   1
  -2 -13 -11 12.5795 65.1850   1
   2  13 -11 75.6916 55.0064   1
  13  -2 -11 151.042 64.6392   1
 -13   2  11 27.5672 78.9158   1
 -13   1   0 72.0160 27.9295   1
  -1 -13   0-39.8122 44.5660   1
   1  13   0 39.8337 41.7615   1
   1  13  -2 16.9195 48.0518   1
  -1 -13  -2-24.9066 42.0046   1
 -13   1   2 3.02897 36.2096   1
 -13   1  -2 2.06296 20.8110   1
  -1 -13   2 64.5006 40.0671   1
   1  13   2-2.82743 43.1038   1
 -13   1   4-9.97310 46.4709   1
   1  13  -4 19.7919 44.2121   1
 -13   1  -4 20.1102 14.9361   1
  -1 -13  -4-4.60283 47.6374   1
  -1 -13   4-25.1071 34.8313   1
  13  -1  -4 24.4898 28.2767   1
   1  13   4-6.70826 44.7783   1
  -1 -13  -6 166.403 54.5502   1
   1  13  -6 89.0996 51.4719   1
 -13   1   6 63.9329 50.2810   1
  13  -1  -6 81.1432 36.3366   1
   1  13   6 78.5238 53.0197   1
 -13   1   8 13.4759 65.6980   1
  -1 -13  -8 31.1851 56.9979   1
   1  13  -8 52.8090 46.0884   1
  13  -1  -8-14.0333 42.1811   1
   1  13   8 49.6903 57.8553   1
  -1 -13 -10 39.3082 64.7589   1
   1  13 -10 48.0205 51.0852   1
 -13   1  10-4.31626 76.4152   1
  13  -1 -10-63.9098 59.0252   1
 -13   0   1 113.904 33.4296   1
   0 -13  -1 106.800 40.8758   1
   0 -13   1 65.7802 43.6241   1
 -13   0  -1 92.4855 25.6142   1
   0  13   1 68.4553 45.0177   1
   0  13  -1 61.7784 43.2689   1
   0  13  -3 123.896 45.7436   1
 -13   0  -3 154.197 21.8615   1
   0 -13   3 112.461 37.5921   1
  13   0  -3 140.672 25.3106   1
 -13   0   3 101.231 41.5292   1
   0  13   3 111.984 50.3265   1
   0 -13  -3 218.585 50.8387   1
   0  13   5 357.046 62.6653   1
 -13   0   5 339.247 59.3337   1
  13   0  -5 292.641 42.3456   1
 -13   0  -5 369.001 27.4662   1
   0 -13  -5 361.315 58.6166   1
   0  13  -5 253.124 45.6169   1
   0 -13  -7 235.468 62.1016   1
   0  13  -7 112.332 46.7881   1
 -13   0   7 128.225 57.7071   1
  13   0  -7 121.992 45.3483   1
   0  13   7 187.420 59.8558   1
   0 -13  -9 204.920 62.1562   1
   0  13  -9 63.0032 51.9408   1
  13   0  -9 100.550 57.5647   1
   0  13   9 134.137 65.6721   1
   0 -13 -11 35.2458 62.7986   1
   0  13 -11-7.41500 50.7076   1
  13   0 -11 123.996 59.8645   1
 -13   0  11 80.3148 75.7166   1
   1 -13   0 3287.57 89.4439   1
 -13  -1   0 3208.02 66.9760   1
   1 -13  -2 7247.18 120.573   1
 -13  -1  -2 8261.46 93.9204   1
  13   1  -2 7692.89 90.9010   1
   1 -13   2 6873.64 112.540   1
 -13  -1   2 8063.74 121.081   1
  -1  13   2 7193.20 131.192   1
  -1  13  -2 7730.74 123.724   1
 -13  -1   4 4390.85 110.302   1
  13   1  -4 4231.60 76.8040   1
  -1  13   4 4811.85 119.983   1
   1 -13  -4 5005.29 108.214   1
 -13  -1  -4 4664.16 64.9954   1
  13   1  -6 1534.17 62.0550   1
 -13  -1  -6 1661.14 46.8806   1
   1 -13  -6 1649.08 75.7589   1
  -1  13  -6 1576.90 63.4193   1
  -1  13  -8 3632.52 91.1851   1
  13   1  -8 3318.82 94.4818   1
 -13  -1  -8 3213.99 69.4230   1
  -1  13   8 3656.31 122.611   1
   1 -13  -8 3602.77 112.501   1
  -1  13 -10 643.294 65.7975   1
  13   1 -10 498.844 73.1038   1
 -13  -1  10 629.264 85.8048   1
  -1  13  10 716.132 80.5008   1
 -13  -2   1 97.0131 37.7838   1
   2 -13  -1 113.669 40.1209   1
  13   2  -1 30.3715 19.6213   1
 -13  -2  -1 54.3759 31.8009   1
   2 -13   1 53.6177 36.7019   1
  -2  13   1 54.7674 46.3139   1
  -2  13  -1 29.8245 43.2376   1
 -13  -2  -3 345.846 30.1645   1
  13   2  -3 281.079 31.4598   1
   2 -13   3 331.469 36.6557   1
  -2  13   3 331.509 58.7616   1
 -13  -2   3 338.327 50.6927   1
  -2  13  -3 371.511 47.8509   1
  -2  13  -5 37.0209 41.9330   1
 -13  -2  -5 92.3680 27.7280   1
   2 -13  -5 86.3776 55.3410   1
  13   2  -5 33.8204 36.4917   1
 -13  -2   5 67.3052 48.5410   1
  -2  13   5 78.1170 61.7362   1
 -13  -2  -7 27.1192 32.0661   1
   2 -13  -7 21.7194 56.5854   1
  -2  13  -7 39.5178 40.9061   1
 -13  -2   7 115.802 60.1215   1
  13   2  -7 105.280 44.7340   1
  -2  13   7 17.8234 61.1628   1
   2 -13  -9 52.1379 59.2036   1
  -2  13  -9-5.37919 42.1167   1
  13   2  -9 127.751 54.5747   1
 -13  -2   9 29.7316 59.4659   1
  -2  13   9 118.164 73.6801   1
 -13  -2  -9 61.0946 40.4836   1
   2 -13 -11-38.9607 67.6469   1
  -2  13 -11 13.7027 50.0311   1
 -13  -2  11 85.5247 75.9679   1
  13   2 -11-8.20653 62.4913   1
  -2  13  11 70.7951 76.5591   1
   3 -13   0 998.919 54.8263   1
  -3  13   0 911.346 61.2725   1
   3 -13  -2 470.196 45.8924   1
 -13  -3  -2 359.998 34.2951   1
  13   3  -2 373.373 28.7933   1
   3 -13   2 349.568 37.5678   1
 -13  -3   2 301.856 45.0354   1
  -3  13   2 397.789 59.7086   1
  -3  13  -2 370.248 46.1152   1
  13   3  -4 400.625 37.0149   1
  -3  13   4 437.605 65.1509   1
  -3  13  -4 487.653 51.0180   1
 -13  -3   4 358.902 58.5802   1
   3 -13  -4 418.443 50.5814   1
 -13  -3  -4 408.809 33.5617   1
 -13  -3  -6 127.601 29.4990   1
   3 -13  -6 150.753 54.1879   1
  13   3  -6 216.380 41.6687   1
  -3  13   6 200.769 61.4812   1
  -3  13  -6 161.184 41.0500   1
 -13  -3   6 18.0402 56.2535   1
  -3  13  -8 222.557 44.4268   1
 -13  -3   8 380.618 71.9652   1
  13   3  -8 265.154 52.6243   1
 -13  -3  -8 271.497 42.8754   1
  -3  13   8 319.897 72.3608   1
   3 -13  -8 367.769 67.1774   1
   3 -13 -10 51.4275 66.1168   1
 -13  -3  10-118.013 69.8925   1
  -3  13 -10-48.5824 49.2108   1
  13   3 -10 145.272 59.5745   1
  -3  13  10-25.0910 70.2897   1
 -13  -3 -10-51.8237 42.2045   1
   4 -13  -1 2785.64 71.6000   1
 -13  -4  -1 2488.74 66.8409   1
  13   4  -1 2394.70 50.5475   1
   4 -13   1 2548.87 62.0623   1
 -13  -4   1 2732.53 75.2165   1
  -4  13  -1 2770.38 79.1424   1
 -13  -4  -3 1578.25 50.7244   1
  13   4  -3 1627.30 51.6836   1
  -4  13   3 1759.75 82.4589   1
  -4  13  -3 1625.03 62.6371   1
  13   4  -5 1455.63 60.8164   1
   4 -13  -5 1670.83 76.9862   1
  -4  13  -5 1488.36 62.0671   1
 -13  -4  -5 1449.89 48.5965   1
 -13  -4   5 1409.29 82.2973   1
 -13  -4   7 808.170 78.9998   1
  13   4  -7 910.686 61.2362   1
  -4  13   7 1059.88 80.9746   1
   4 -13  -7 1080.88 76.4218   1
 -13  -4  -7 1077.31 55.1495   1
  -4  13  -7 789.606 47.6830   1
  -4  13  -9 237.515 46.9922   1
  13   4  -9 298.819 54.8040   1
 -13  -4   9 254.246 68.0348   1
 -13  -4  -9 262.866 49.3375   1
   4 -13  -9 351.320 75.2223   1
  -4  13   9 353.554 77.6590   1
 -13  -4  11 302.376 80.9896   1
  -4  13 -11 213.282 50.8858   1
  13   4 -11 282.376 67.3068   1
  -4  13  11 184.224 82.5888   1
 -13  -4 -11 151.341 51.4768   1
   4 -13 -11 177.180 73.0545   1
   5 -13   0 11269.6 120.124   1
  -5  13   0 12491.3 164.128   1
   5 -13  -2 805.578 48.0147   1
 -13  -5  -2 918.646 49.8201   1
  13   5  -2 785.162 38.7080   1
 -13  -5   2 764.566 57.8216   1
  -5  13   2 1004.15 66.5373   1
  -5  13  -2 867.215 54.8927   1
  13   5  -4 7505.19 109.432   1
  -5  13   4 9243.76 158.309   1
 -13  -5   4 6978.07 137.810   1
  -5  13  -4 8131.42 118.462   1
   5 -13  -4 8728.38 134.431   1
 -13  -5  -4 7656.89 103.414   1
 -13  -5   6 473.241 62.0798   1
  13   5  -6 362.072 45.8676   1
  -5  13   6 369.976 65.4714   1
   5 -13  -6 517.627 61.2850   1
 -13  -5  -6 511.020 46.7026   1
  -5  13  -6 361.767 39.8709   1
   5 -13  -8 2908.15 110.319   1
 -13  -5   8 2163.27 104.452   1
  13   5  -8 2312.98 89.5888   1
  -5  13   8 3097.26 120.502   1
 -13  -5  -8 2754.50 84.0423   1
  -5  13  -8 2033.76 70.6934   1
   5 -13 -10 125.974 67.7257   1
 -13  -5 -10 191.291 52.3808   1
  -5  13 -10 114.768 49.4282   1
  13   5 -10 216.711 60.2557   1
 -13  -5  10 255.921 68.4234   1
  -5  13  10 15.4979 70.7779   1
  13   6  -1 5499.69 80.6044   1
 -13  -6  -1 4923.70 92.8487   1
 -13  -6   1 5850.09 113.891   1
  -6  13   1 4706.49 108.836   1
  -6  13  -1 5482.97 109.912   1
 -13  -6  -3 4236.12 98.4163   1
  13   6  -3 5661.66 92.9984   1
 -13  -6   3 6209.18 124.129   1
  13   6  -5 5073.17 105.278   1
  -6  13   5 4012.08 114.912   1
  -6  13  -5 5658.58 98.4689   1
   6 -13  -5 4609.97 109.628   1
 -13  -6   5 5184.16 133.075   1
 -13  -6  -5 4700.46 96.6645   1
 -13  -6   7 689.390 76.0193   1
  13   6  -7 668.037 56.2151   1
  -6  13   7 591.952 70.7221   1
   6 -13  -7 729.945 70.3698   1
 -13  -6  -7 604.719 54.4481   1
  -6  13  -9 2081.53 69.1246   1
  13   6  -9 1990.11 93.0641   1
  -6  13   9 2084.35 107.114   1
   6 -13  -9 2100.17 100.288   1
 -13  -6  -9 1863.70 82.2434   1
 -13  -6 -11 52.8721 53.2525   1
  -6  13 -11 38.7657 45.1161   1
  13   6 -11 80.4986 58.7718   1
  -6  13  11 105.195 83.3603   1
 -13  -6  11-5.11236 63.2600   1
   6 -13 -11 94.2690 68.2469   1
  13   7   0 1757.74 48.3492   1
 -13  -7   0 1760.44 69.6296   1
 -13  -7   2 34.5461 45.3713   1
  13   7  -2 44.6181 27.3839   1
 -13  -7  -2 122.702 38.7581   1
  -7  13   2 140.235 46.6746   1
  -7  13  -2 15.6802 40.4262   1
 -13  -7  -4 809.974 50.2075   1
  13   7  -4 836.170 51.0021   1
  -7  13   4 747.465 66.1057   1
 -13  -7   4 721.720 63.4269   1
  -7  13  -4 972.279 50.4239   1
   7 -13  -4 922.848 51.6987   1
  -7  13  -6 5.93137 37.0788   1
   7 -13  -6 30.2171 45.3190   1
 -13  -7  -6-17.2027 40.2944   1
  13   7  -6 98.3226 42.5385   1
 -13  -7   6 7.37882 57.5917   1
  -7  13   6 121.539 62.3662   1
   7 -13  -8 133.438 60.9699   1
 -13  -7   8 115.770 68.6378   1
 -13  -7  -8 170.576 50.6468   1
  13   7  -8 29.0350 46.0074   1
  -7  13   8 94.1799 72.4044   1
  -7  13  -8 180.888 38.1662   1
   7 -13 -10 225.279 68.7031   1
 -13  -7 -10 232.444 58.8353   1
  -7  13 -10 66.2465 43.8484   1
  13   7 -10 268.334 61.6256   1
 -13  -7  10 77.1368 61.3944   1
  -7  13  10 188.015 79.9836   1
  13   8  -1 1047.49 46.1843   1
 -13  -8  -1 984.699 55.3356   1
 -13  -8   1 1128.73 62.3848   1
  -8  13   1 1163.76 59.7632   1
 -13  -8  -3 1871.08 71.9143   1
  13   8  -3 1921.54 63.1323   1
  -8  13   3 2079.50 85.6619   1
  -8  13  -3 2070.05 65.9822   1
  13   8  -5 238.239 44.2487   1
 -13  -8   5 187.918 57.9423   1
  -8  13   5 293.071 67.3607   1
  -8  13  -5 238.497 36.8937   1
 -13  -8  -5 272.437 48.0908   1
 -13  -8   7 948.432 72.8452   1
  13   8  -7 869.235 61.4515   1
  -8  13   7 1091.41 94.6443   1
   8 -13  -7 1233.91 77.6274   1
 -13  -8  -7 1057.91 62.7880   1
  -8  13  -7 1053.20 50.9467   1
   8 -13  -9 210.308 66.4334   1
 -13  -8  -9 101.661 52.1325   1
 -13  -8   9 58.2886 64.5435   1
  13   8  -9 136.579 53.0414   1
  -8  13   9 169.987 79.3685   1
  13   9   0 166.265 29.7096   1
  -9  13   0 220.955 45.3010   1
  13   9  -2 2459.74 64.1233   1
 -13  -9  -2 2668.41 83.2428   1
 -13  -9   2 2722.62 91.3730   1
 -13  -9   4 56.5623 48.2291   1
  13   9  -4 43.5767 40.5635   1
 -13  -9  -4 35.9350 41.6185   1
  -9  13   4 91.4160 60.8186   1
  -9  13  -4 59.4562 33.8818   1
  13   9  -6 1461.54 68.0941   1
  -9  13   6 1762.92 100.736   1
  -9  13  -6 1420.52 52.1499   1
 -13  -9   6 1293.12 83.4229   1
 -13  -9  -6 1832.53 78.0708   1
 -13  -9  -8 92.2260 56.1809   1
  13   9  -8-38.5182 50.7672   1
  -9  13   8 31.5172 79.0538   1
 -13  -9   8 23.2339 60.7131   1
 -13  -9 -10 294.536 63.2724   1
 -13  -9  10 210.623 71.9086   1
  13   9 -10 245.193 59.5817   1
  13   9  10 250.100 67.4344   2
  -9  13  10 321.563 94.6899   1
  13  10  -1 85.6391 33.3264   1
 -13 -10  -1 34.0750 45.9642   1
 -10  13   1 113.224 47.9149   1
 -10  13  -1 23.6268 36.7046   1
 -13 -10   1 75.2563 44.4400   1
 -13 -10  -3 304.870 49.5366   1
  13  10  -3 292.679 39.9581   1
 -13 -10   3 423.295 60.6610   1
 -10  13   3 354.282 61.7390   1
 -10  13  -3 303.879 42.3683   1
 -13 -10  -5-29.5178 47.0697   1
  13  10  -5 53.7214 43.7690   1
 -13 -10   5-49.4424 60.5439   1
 -10  13   5 37.2114 62.8360   1
 -10  13  -5 35.7576 31.5382   1
  13  10  -7 469.369 59.3234   1
 -10  13   7 477.441 83.8975   1
 -13 -10  -7 413.922 62.8513   1
 -13 -10   7 481.575 70.7295   1
 -13 -10   9 20.2409 68.3400   1
 -13 -10  -9 106.893 63.8733   1
  13  10  -9-86.4936 55.0778   1
 -10  13   9 185.573 88.6880   1
  13  11   0 1620.05 58.9868   1
 -13 -11   0 1742.06 82.1539   1
  13  11  -2 2133.83 69.8782   1
 -13 -11  -2 2072.56 84.0926   1
 -11  13  -2 1952.24 62.6204   1
 -13 -11  -4 1812.39 81.1923   1
  13  11  -4 1962.36 72.1569   1
 -13 -11   4 1909.02 88.5231   1
 -11  13  -4 2116.24 65.1829   1
  13  11  -6 504.242 57.9402   1
 -13 -11   6 510.963 73.9802   1
 -13 -11  -6 568.424 64.9113   1
 -13 -11   8 1364.62 90.6761   1
  13  11  -8 1261.60 78.6876   1
 -13 -11  -8 1231.10 80.7212   1
 -12  13  -1 5.77796 38.6383   1
  13  12  -1-2.36604 36.3524   1
 -13 -12  -1 72.6886 50.1825   1
 -12  13   3-46.3953 53.7097   1
 -13 -12   3 90.2597 55.2673   1
  13  12  -3-10.7503 37.2753   1
 -13 -12  -3-68.9674 55.6652   1
 -12  13  -3 20.0389 33.9015   1
 -12  13   5 26.1533 64.6144   1
  13  12  -5 117.254 43.3332   1
 -13 -12   5-9.96731 50.8155   1
 -13 -12  -5-35.4923 50.5564   1
 -13 -12  -7-38.5262 58.4817   1
  13  12  -7 61.5548 51.7491   1
 -13 -12   7-91.3296 61.3517   1
 -13  13   2 54.5903 53.4361   1
  13  13  -2 127.879 40.4254   1
 -13 -13  -2 128.072 59.9147   1
 -13  13  -2 178.462 42.1371   1
 -13 -13   2 80.6773 48.0210   1
 -13 -13   4 40.1198 52.9403   1
  13  13  -4 60.4792 44.4437   1
 -13 -13  -4 71.2100 52.5249   1
 -13  13   6 227.131 78.9765   1
  13  13  -6 50.3944 49.2581   1
 -13 -13  -6 136.932 58.7546   1
 -13 -13   6 189.279 60.4274   1
 -13 -13  -8 19.7649 63.2356   1
  13  13  -8-72.2692 58.3862   1
 -13 -13   8-29.8101 53.6483   1
  13  14  -1-39.8797 46.4875   1
 -13 -14  -1 12.9029 52.4330   1
 -14  13   1 21.5826 48.9508   1
 -13 -14   1 3.86523 51.0256   1
 -13 -14   3 59.4903 56.6342   1
  13  14  -3-9.09661 45.3512   1
 -14  13   3-29.7407 55.6951   1
 -13 -14  -3 90.8428 57.8508   1
  13  14  -5 109.580 48.6339   1
 -13 -14   5 90.8673 54.6984   1
 -13 -14  -5-43.0106 64.8630   1
 -14  13   5 13.8122 69.5405   1
  13  14  -7 32.4973 55.8554   1
 -13 -14  -7-19.2935 60.2091   1
 -13 -14   7-29.6807 57.7967   1
 -14  13   7 89.4922 79.8128   1
  12  14   0 364.603 50.7635   1
 -14  12   0 271.781 45.1591   1
 -12 -14   0 245.263 60.3579   1
  12  14  -2 2202.37 86.6989   1
 -14  12  -2 2346.78 65.5527   1
 -12 -14  -2 2309.68 99.7242   1
 -14  12   2 2236.21 83.9826   1
  12  14  -4 144.352 48.7528   1
 -14  12   4 84.6496 61.0454   1
 -12 -14  -4 111.048 58.3832   1
 -12 -14   4 276.026 60.1607   1
 -12 -14  -6 358.674 63.6570   1
  12  14  -6 285.974 52.8216   1
 -12 -14   6 594.941 75.6667   1
 -14  12   6 552.746 80.6200   1
 -12 -14  -8 38.2820 65.1287   1
  12  14  -8 238.925 64.6340   1
 -14  12   8 216.108 89.3248   1
 -12 -14   8 264.268 62.8570   1
  11  14   1 31.4468 42.4430   1
  11  14  -1 22.8740 42.1845   1
 -14  11   1 41.7381 38.6924   1
 -11 -14  -1 63.0239 50.5652   1
 -14  11  -1 64.7115 32.9729   1
 -11 -14   1 38.2162 48.7007   1
 -11 -14   3-3.59963 51.7582   1
  11  14  -3 6.45264 49.6164   1
 -11 -14  -3-20.8553 54.9616   1
 -14  11   3 50.3879 50.4418   1
  11  14  -5 50.2858 45.1093   1
 -11 -14   5 57.1034 55.8717   1
 -11 -14  -5 94.6758 55.7533   1
 -14  11   5 42.7488 62.6345   1
 -14  11   7 86.2721 80.5848   1
 -11 -14  -7 3.29844 60.1664   1
  11  14  -7-43.3145 50.1016   1
 -11 -14   7 15.9365 55.7336   1
  10  14   0 392.563 49.7343   1
 -14  10   0 324.335 36.2479   1
 -10 -14   0 398.118 62.7586   1
  10  14  -2 804.431 58.5514   1
 -10 -14  -2 868.976 70.7270   1
 -14  10   2 833.653 55.5981   1
 -14  10  -2 752.276 36.3323   1
 -10 -14   2 710.888 67.5662   1
  10  14   2 877.211 62.0074   1
 -10 -14  -4 310.976 61.0532   1
  10  14  -4 301.879 57.3160   1
 -14  10   4 264.478 58.9178   1
 -10 -14   4 285.642 59.0985   1
  10  14  -6 453.861 56.2794   1
 -14  10   6 550.793 76.3113   1
 -10 -14   6 327.134 65.0383   1
 -10 -14  -6 511.744 67.5620   1
 -14  10   8 95.5937 78.0661   1
 -10 -14  -8 95.1111 60.5573   1
  10  14  -8 94.0727 58.6297   1
   9  14   1 79.3560 42.4764   1
   9  14  -1 85.7068 43.5678   1
 -14   9  -1 95.4292 28.4678   1
  -9 -14  -1 87.2589 57.1614   1
 -14   9   1 76.1042 38.3649   1
  -9 -14   1 102.547 48.2286   1
  -9 -14   3 133.138 56.5129   1
   9  14   3 181.972 47.8589   1
   9  14  -3 190.968 47.7893   1
  -9 -14  -3 7.41235 57.6422   1
 -14   9   3 136.307 50.9312   1
 -14   9   5 48.4049 53.3331   1
   9  14  -5 72.4056 54.6058   1
  -9 -14   5 50.0335 51.5005   1
  -9 -14  -5-2.37181 53.0847   1
  -9 -14  -7 127.854 63.3538   1
   9  14  -7 63.3542 52.6493   1
 -14   9   7 12.1649 69.3118   1
  -9 -14   7-7.09803 52.0722   1
  -9 -14  -9-47.8270 63.1061   1
   9  14  -9 18.4212 57.1369   1
 -14   9   9-157.989 88.7358   1
 -14   8   0 219.782 34.6809   1
  -8 -14   0 224.957 53.6068   1
   8  14   0 279.494 50.6842   1
   8  14   2 27.1996 44.5057   1
   8  14  -2 69.9788 44.6074   1
 -14   8   2 73.4762 40.4332   1
  -8 -14  -2-11.2499 52.4589   1
  -8 -14   2 52.5008 48.2505   1
 -14   8  -2 69.9710 23.9496   1
   8  14   4 13.2318 46.7646   1
  -8 -14   4 62.7315 50.2018   1
   8  14  -4 155.611 49.9679   1
  -8 -14  -4 93.9453 53.2104   1
 -14   8   4 107.166 54.1006   1
 -14   8   6 84.4233 61.6752   1
   8  14  -6-12.4524 52.7714   1
  -8 -14  -6-42.2539 59.9952   1
  -8 -14   6 18.4452 55.3058   1
  -8 -14  -8 51.5486 54.7578   1
   8  14  -8 2.81102 50.1143   1
  -7 -14  -1 348.279 57.3644   1
 -14   7  -1 339.316 28.9643   1
  -7 -14   1 346.611 56.7371   1
 -14   7   1 397.660 39.1075   1
   7  14   1 386.565 49.6683   1
   7  14  -1 432.601 51.7030   1
   7  14  -3 270.254 50.1805   1
  -7 -14  -3 250.514 58.2507   1
 -14   7   3 194.769 48.8344   1
  -7 -14   3 260.879 55.3095   1
   7  14   3 245.084 53.4937   1
   7  14  -5 364.488 55.8459   1
  -7 -14   5 484.521 61.4270   1
 -14   7   5 341.285 68.2478   1
   7  14   5 342.603 49.1900   1
  -7 -14  -5 398.448 61.5116   1
   7  14  -7 312.610 60.9505   1
 -14   7   7 310.073 75.2742   1
  -7 -14  -7 228.903 57.6463   1
  -7 -14   7 361.005 63.3948   1
   7  14  -9 293.731 63.0163   1
 -14   7   9 415.018 83.5444   1
  -7 -14  -9 325.048 71.6214   1
 -14   6   0 1037.87 44.7461   1
  -6 -14   0 1033.95 65.1202   1
   6  14   0 1009.05 63.0597   1
   6  14   2 105.452 44.7837   1
   6  14  -2 177.873 48.4644   1
  -6 -14  -2 146.745 53.2153   1
 -14   6   2 136.519 39.2962   1
  -6 -14   2 170.914 45.5355   1
 -14   6  -2 110.890 21.2290   1
   6  14  -4 641.717 60.9561   1
  -6 -14   4 613.771 61.8733   1
 -14   6   4 799.686 65.8376   1
   6  14   4 821.373 64.3853   1
  -6 -14  -4 836.319 67.5603   1
   6  14   6 77.2368 54.1459   1
   6  14  -6 122.715 51.7635   1
  -6 -14  -6 155.389 56.6347   1
  -6 -14   6 34.7748 54.6926   1
 -14   6   6 191.077 67.8352   1
 -14   6   8 734.063 87.5570   1
   6  14  -8 489.959 65.1549   1
   6  14   8 707.244 59.2655   2
  -6 -14  -8 707.857 75.3887   1
  -6 -14 -10 16.3051 52.7286   1
   6  14 -10-38.1656 58.1648   1
 -14   6  10 28.4097 78.4580   1
   6  14  10-44.8791 62.7561   2
   5  14   1 38.9350 47.4378   1
   5  14  -1 25.8509 48.2492   1
 -14   5   1 19.5686 35.8198   1
  -5 -14  -1 81.2404 52.7948   1
 -14   5  -1 20.7899 25.8314   1
  -5 -14   1 42.0719 47.1836   1
   5  14   3 135.339 52.0082   1
  -5 -14   3 84.5155 50.1048   1
  -5 -14  -3 270.438 57.8349   1
   5  14  -3 228.084 52.6617   1
 -14   5   3 177.577 44.9206   1
   5  14  -5 457.647 57.7338   1
 -14   5   5 521.513 69.5808   1
  -5 -14   5 354.080 57.3102   1
   5  14   5 527.052 63.4012   1
  -5 -14  -5 406.062 63.1434   1
   5  14  -7 293.099 61.2033   1
   5  14   7 502.249 52.5699   2
 -14   5   7 470.295 78.0606   1
   5  14   7 417.478 58.4450   1
  -5 -14  -7 369.403 68.9877   1
  -5 -14  -9 168.556 56.4605   1
   5  14  -9 202.067 58.9848   1
   5  14   9 263.354 56.4578   2
 -14   5   9 43.3469 75.9794   1
   4  14   0 72.4104 44.7680   1
 -14   4   0 181.611 32.4423   1
  -4 -14  -2 553.098 65.3589   1
 -14   4   2 538.579 47.8653   1
  -4 -14   2 356.239 49.1052   1
 -14   4  -2 534.549 27.4572   1
   4  14   2 544.749 61.0777   1
   4  14  -2 434.353 56.4928   1
   4  14  -4 91.4817 48.5208   1
  -4 -14   4 75.8983 48.6118   1
  -4 -14  -4 68.0933 53.8682   1
 -14   4   4-10.4134 47.4884   1
   4  14   4-43.6633 50.8518   1
 -14   4   6 233.591 70.3214   1
   4  14  -6 147.240 50.6031   1
  -4 -14  -6 82.5209 51.4757   1
   4  14   6 158.008 56.4741   1
  -4 -14  -8 34.8704 57.8939   1
   4  14  -8 44.7718 57.2063   1
 -14   4   8 56.7585 71.8671   1
   4  14   8 22.7131 58.4905   1
  -4 -14 -10-53.7459 71.8417   1
   4  14 -10 56.2768 53.7107   1
   4  14  10 7.15570 61.8931   2
 -14   4  10 44.8811 81.1386   1
  -3 -14   1 2003.88 86.4070   1
 -14   3  -1 1830.22 44.7972   1
   3  14   1 2061.19 83.6170   1
   3  14  -1 1920.22 77.2401   1
 -14   3   1 1709.07 58.0165   1
  -3 -14  -3 676.472 60.5430   1
 -14   3   3 616.446 52.9242   1
 -14   3  -3 641.405 27.4931   1
  -3 -14   3 483.366 56.4670   1
   3  14   3 631.382 59.8932   1
   3  14  -3 479.163 58.5731   1
 -14   3   5 2250.90 86.8585   1
   3  14   5 2388.17 89.3235   1
  -3 -14  -5 2499.72 92.1480   1
   3  14  -5 2428.37 91.2236   1
 -14   3   7 2.52433 70.2066   1
  -3 -14  -7 149.529 64.7737   1
   3  14  -7 48.6908 49.9471   1
   3  14   7 185.039 58.3274   1
   3  14  -9 842.073 74.0379   1
  -3 -14  -9 1120.32 85.8641   1
 -14   3   9 994.406 96.2776   1
 -14   3  11 3.84562 77.4482   1
  -3 -14 -11-23.5987 68.4722   1
   3  14 -11-9.14649 52.2757   1
   3  14  11 39.5106 70.8780   2
 -14   2   0 52642.9 245.508   1
   2  14   0 51359.7 341.564   1
  -2 -14  -2 2254.06 83.9768   1
 -14   2  -2 2941.85 49.1810   1
  -2 -14   2 2536.45 84.2995   1
   2  14   2 2568.03 94.1812   1
 -14   2   2 2656.81 79.9376   1
 -14   2   4 33489.9 286.726   1
  -2 -14   4 35315.7 274.314   1
   2  14   4 35024.1 288.434   1
   2  14  -4 36996.9 274.874   1
  -2 -14  -4 36414.9 296.504   1
 -14   2  -4 35390.9 127.858   1
   2  14  -6 2253.77 86.5904   1
   2  14   6 2533.47 101.692   1
  -2 -14  -6 2405.57 96.9012   1
   2  14  -8 9180.87 152.440   1
  14  -2  -8 9125.09 155.902   1
 -14   2   8 8422.79 182.102   1
   2  14   8 8446.55 168.350   1
   2  14 -10 1693.68 83.8164   1
  14  -2 -10 1806.19 95.2806   1
  -2 -14 -10 2023.08 103.581   1
 -14   2  10 1778.42 114.692   1
 -14   1  -1 55.2890 26.1298   1
   1  14  -1 26.5527 50.1785   1
 -14   1   1 60.2738 35.4172   1
  -1 -14  -1 78.6150 44.6557   1
  -1 -14   1 31.5003 45.8586   1
   1  14   1 52.6710 56.9992   1
  -1 -14   3 155.873 43.9886   1
 -14   1  -3 203.011 23.2340   1
  -1 -14  -3 264.882 51.6901   1
 -14   1   3 125.194 41.0059   1
   1  14   3 214.903 56.4782   1
   1  14  -3 196.596 48.9173   1
   1  14  -5-7.20465 45.7000   1
  -1 -14  -5 124.042 52.7807   1
 -14   1   5-12.9721 53.4283   1
   1  14   5 107.863 55.7572   1
  -1 -14  -7 151.532 56.1393   1
   1  14  -7 38.4444 46.4373   1
  14  -1  -7 97.6393 44.0285   1
 -14   1   7 142.271 61.7904   1
   1  14   7 71.5753 58.2884   1
  -1 -14  -9 85.9247 67.9149   1
   1  14  -9-2.18981 56.3082   1
 -14   1   9 15.0442 72.4717   1
   1  14   9 62.8606 64.7722   1
  -1 -14 -11-54.0376 68.2686   1
   1  14 -11-9.01415 49.6936   1
  14  -1 -11 92.8295 60.9925   1
 -14   1  11-29.5293 79.3292   1
   0 -14   0 669.107 58.6007   1
 -14   0   0 707.867 42.9915   1
   0  14   0 785.114 64.6684   1
   0  14  -2 214.591 53.2998   1
 -14   0  -2 149.019 28.5448   1
   0 -14  -2 216.616 44.7753   1
 -14   0   2 192.532 40.2518   1
   0 -14   2 170.660 45.0492   1
   0  14   2 150.612 56.0758   1
 -14   0   4 582.106 57.1949   1
   0  14  -4 469.991 57.3214   1
   0 -14  -4 672.636 63.6861   1
 -14   0  -4 605.468 28.1299   1
   0  14  -6 69.0660 46.1440   1
   0 -14  -6 33.5850 59.5438   1
 -14   0   6 54.3883 56.9422   1
  14   0  -6-2.75094 34.9232   1
   0  14   6-25.8036 59.2128   1
   0  14  -8 231.244 49.8411   1
   0 -14  -8 262.066 66.2443   1
  14   0  -8 268.453 54.2730   1
 -14   0   8 299.169 64.7318   1
   0  14   8 370.600 77.2410   1
   0 -14 -10-16.9905 64.5573   1
   0  14 -10 17.8399 52.3749   1
 -14   0  10 2.48899 73.3439   1
  14   0 -10 70.1875 56.1472   1
   0  14  10 85.6552 67.9711   1
 -14  -1  -1 145.702 29.1609   1
   1 -14  -1 126.025 42.0648   1
 -14  -1   1 192.514 38.9428   1
   1 -14   1 170.992 43.4560   1
  -1  14   1 161.688 53.1753   1
  -1  14  -1 162.453 56.2312   1
  -1  14  -3 5.73853 47.7630   1
   1 -14   3 88.3484 37.3950   1
   1 -14  -3 32.0600 45.7283   1
 -14  -1  -3 64.5841 24.2057   1
 -14  -1   3 51.6052 43.1341   1
  -1  14   3 2.42610 54.0785   1
  -1  14  -5-9.76325 45.3062   1
 -14  -1  -5-10.7198 22.3548   1
   1 -14  -5-6.41010 50.3597   1
  14   1  -5 33.8161 35.0692   1
  -1  14   5-30.9901 60.1948   1
 -14  -1   5 11.6837 52.8421   1
 -14  -1  -7 54.4615 29.1900   1
   1 -14  -7 11.5652 48.7480   1
  -1  14  -7 112.438 52.2739   1
 -14  -1   7 119.972 63.3511   1
  14   1  -7 96.5787 47.0052   1
  -1  14   7 1.34468 58.2622   1
   1 -14  -9 74.8272 64.9259   1
  -1  14  -9 71.7661 47.0925   1
  14   1  -9 91.4792 55.0228   1
  -1  14   9 134.424 70.6707   1
 -14  -1   9 138.383 64.6053   1
   1 -14 -11 165.008 69.8156   1
  -1  14 -11 37.8666 52.9221   1
 -14  -1  11-25.0421 76.0362   1
  14   1 -11-57.5163 70.7158   1
   2 -14   0-7.73975 40.1439   1
  -2  14   0-12.9064 48.6421   1
 -14  -2   0-22.8970 33.4918   1
   2 -14  -2 2377.32 75.9528   1
 -14  -2  -2 2239.99 56.3792   1
   2 -14   2 2209.53 66.2238   1
 -14  -2   2 2113.41 71.9787   1
  -2  14   2 2819.77 100.926   1
  -2  14  -2 2627.84 85.7462   1
  -2  14  -4 59.4629 45.8519   1
   2 -14  -4-0.28035 48.3010   1
 -14  -2  -4 26.3505 25.6425   1
  14   2  -4 45.1882 31.4655   1
 -14  -2   4 30.1623 49.4642   1
  -2  14   4-47.4649 58.8833   1
 -14  -2   6 915.713 77.6194   1
  14   2  -6 1000.14 56.7765   1
  -2  14   6 1265.75 92.1693   1
 -14  -2  -6 1257.42 46.9793   1
   2 -14  -6 1398.41 80.8848   1
  -2  14  -6 838.084 55.9328   1
 -14  -2  -8 68.4402 36.4735   1
   2 -14  -8 33.2052 62.6562   1
  -2  14  -8-44.9566 45.1997   1
 -14  -2   8 101.534 60.7911   1
  14   2  -8 49.5884 46.9490   1
  -2  14   8 74.7699 72.1940   1
   2 -14 -10 155.125 68.5461   1
 -14  -2  10 108.318 77.3379   1
  -2  14 -10 120.400 52.6687   1
  14   2 -10 224.198 64.5593   1
  -2  14  10 115.416 76.9417   1
   3 -14  -1 5022.94 100.133   1
 -14  -3  -1 5787.66 96.7882   1
   3 -14   1 4716.18 88.5181   1
 -14  -3   1 6017.92 107.658   1
  -3  14   1 5924.30 129.554   1
  -3  14  -1 5398.62 118.417   1
 -14  -3  -3 5047.96 80.8598   1
  14   3  -3 4794.60 80.2824   1
  -3  14   3 3298.03 112.303   1
 -14  -3   3 6509.73 134.069   1
  -3  14  -3 3708.00 93.2420   1
   3 -14  -3 3087.24 89.8187   1
 -14  -3   5 4377.04 127.688   1
  14   3  -5 4523.24 91.0362   1
  -3  14   5 5121.32 147.393   1
   3 -14  -5 4999.97 125.975   1
  -3  14  -5 5651.54 108.830   1
 -14  -3  -5 4931.39 82.9107   1
 -14  -3   7 488.701 75.1983   1
  14   3  -7 528.302 57.5153   1
  -3  14   7 814.605 82.4030   1
 -14  -3  -7 696.764 46.0353   1
   3 -14  -7 718.270 67.1594   1
  -3  14  -9 2022.88 79.6921   1
  14   3  -9 1839.89 87.7531   1
 -14  -3   9 1644.26 98.5679   1
 -14  -3  -9 2063.48 73.6288   1
  -3  14   9 2341.05 118.596   1
   3 -14  -9 2026.28 96.1391   1
   3 -14 -11-21.5314 65.9791   1
  -3  14 -11 90.1221 47.3307   1
  14   3 -11-58.5858 63.3927   1
 -14  -3  11 208.859 83.2059   1
  -3  14  11 44.2086 80.9954   1
   4 -14   0 10.0922 32.1276   1
 -14  -4   0 52.7559 35.9607   1
  -4  14   0 19.8131 52.3413   1
   4 -14  -2 418.518 42.7052   1
 -14  -4  -2 458.338 44.2722   1
 -14  -4   2 351.993 49.9886   1
  -4  14  -2 370.559 51.5719   1
  -4  14   2 320.083 61.1349   1
   4 -14  -4-38.9583 46.2152   1
 -14  -4  -4-35.5788 31.0201   1
  14   4  -4 66.0250 34.4043   1
 -14  -4   4 29.3196 54.7579   1
  -4  14   4 18.1964 61.4601   1
  -4  14  -6 154.531 44.4681   1
   4 -14  -6 281.293 57.8273   1
  14   4  -6 277.512 43.0840   1
  -4  14   6 295.456 69.2541   1
 -14  -4   6 227.413 61.3257   1
 -14  -4  -6 128.296 34.7467   1
   4 -14  -8 71.3583 65.0707   1
 -14  -4  -8 80.4082 46.7706   1
  -4  14  -8 20.2488 45.3744   1
 -14  -4   8 148.592 67.6443   1
  14   4  -8 153.351 50.0585   1
  -4  14   8 143.844 73.0258   1
 -14  -4 -10-12.1167 47.9356   1
   4 -14 -10 64.4258 66.4411   1
  -4  14 -10 59.1233 48.4662   1
  14   4 -10 5.93498 56.6355   1
 -14  -4  10-74.4625 63.7910   1
  -4  14  10 72.9512 81.8978   1
 -14  -5   1-0.54841 39.8378   1
   5 -14  -1 63.5501 34.5665   1
 -14  -5  -1 10.1441 37.9927   1
  -5  14   1 103.571 56.5628   1
  -5  14  -1 55.5921 50.6338   1
 -14  -5   3 39.6810 44.2934   1
   5 -14  -3 5.80546 38.2250   1
  14   5  -3 1.76492 29.0113   1
 -14  -5  -3-31.8899 32.0725   1
  -5  14   3 42.1195 55.9620   1
  -5  14  -3 69.3514 44.7011   1
  14   5  -5 339.845 42.7003   1
  -5  14   5 428.438 73.2401   1
  -5  14  -5 429.537 50.0291   1
   5 -14  -5 575.964 61.7398   1
 -14  -5   5 395.120 63.2647   1
 -14  -5  -5 412.919 42.3605   1
 -14  -5  -7 181.281 45.7200   1
  14   5  -7 227.865 49.7991   1
  -5  14   7 384.904 76.4288   1
   5 -14  -7 323.620 63.2347   1
  -5  14  -7 260.129 42.9425   1
 -14  -5   7 147.699 63.2737   1
  -5  14  -9 562.672 49.9450   1
  14   5  -9 617.051 63.6793   1
 -14  -5   9 509.989 73.6236   1
  -5  14   9 778.365 93.8369   1
 -14  -5  -9 692.076 62.2278   1
   5 -14  -9 732.940 77.6048   1
 -14  -6   0 12.7574 37.6867   1
  -6  14   0 49.3596 54.6225   1
 -14  -6   2 12.3666 46.4169   1
  14   6  -2 53.9195 27.1095   1
 -14  -6  -2 35.4456 36.8208   1
  -6  14   2 22.0824 53.0056   1
  -6  14  -2 12.8547 41.2369   1
   6 -14  -4 42.2445 42.5383   1
 -14  -6  -4 7.76639 33.4020   1
 -14  -6   4 63.3492 56.1250   1
  14   6  -4 99.2742 36.9817   1
  -6  14   4 18.9013 57.4847   1
  -6  14  -4-25.6753 43.0926   1
  -6  14  -6 12.3062 33.6602   1
   6 -14  -6 22.7248 50.2330   1
 -14  -6  -6 16.4773 38.6895   1
  14   6  -6 16.0677 40.7502   1
 -14  -6   6-69.0818 60.4718   1
  -6  14   6-23.5891 63.3036   1
   6 -14  -8 17.9244 62.5772   1
 -14  -6   8 24.7535 66.0824   1
  -6  14  -8-53.3305 39.2863   1
 -14  -6  -8 8.93492 44.7523   1
  14   6  -8-13.1263 49.8524   1
  -6  14   8 74.4214 76.8977   1
   6 -14 -10-49.1389 64.5636   1
 -14  -6 -10-51.2088 56.3243   1
  -6  14 -10-26.8801 41.4596   1
  14   6 -10-10.0689 54.0347   1
 -14  -6  10-42.7285 65.9329   1
  -6  14  10 93.1034 79.1435   1
 -14  -7  -1 111.519 43.5223   1
  -7  14  -1 284.293 52.6643   1
  -7  14   1 163.566 51.6917   1
 -14  -7   1 124.480 45.4481   1
 -14  -7   3 53.3713 48.6264   1
  14   7  -3 53.3193 33.4700   1
 -14  -7  -3 24.2145 36.3045   1
  -7  14   3 110.808 57.0551   1
  -7  14  -3 79.6185 41.9341   1
  14   7  -5 603.653 49.6945   1
  -7  14   5 667.041 75.2777   1
  -7  14  -5 476.485 44.9782   1
 -14  -7   5 537.117 69.8452   1
   7 -14  -5 611.034 53.2909   1
 -14  -7  -5 548.905 48.4783   1
  -7  14  -7 149.774 40.7899   1
  14   7  -7 178.303 46.2061   1
  -7  14   7 236.528 76.2242   1
   7 -14  -7 258.603 56.8303   1
 -14  -7   7 256.936 58.4698   1
 -14  -7  -7 233.046 47.4744   1
  -7  14  -9 288.731 46.4961   1
 -14  -7   9 286.782 68.0562   1
  14   7  -9 302.466 58.3981   1
   7 -14  -9 340.755 68.3550   1
  -7  14   9 317.662 84.4876   1
 -14  -7  -9 509.026 61.4801   1
 -14  -8   0 3744.00 93.8620   1
  -8  14   0 3520.99 97.1819   1
  14   8  -2 2450.34 64.9065   1
 -14  -8  -2 2412.99 82.7862   1
 -14  -8   2 2683.14 94.5387   1
  -8  14   2 2233.45 84.8462   1
  -8  14  -2 2053.52 76.1537   1
 -14  -8  -4 2365.41 77.0501   1
 -14  -8   4 2394.63 95.0636   1
  -8  14   4 2388.15 101.209   1
  -8  14  -4 2549.79 75.3177   1
  14   8  -6 923.321 60.6535   1
  -8  14   6 422.256 75.1309   1
  -8  14  -6 351.203 45.1532   1
 -14  -8   6 886.488 77.0036   1
 -14  -8  -6 512.558 59.7979   1
 -14  -8   8 694.714 82.7349   1
  14   8  -8 903.421 67.7810   1
  -8  14   8 1030.73 91.7969   1
 -14  -8  -8 601.543 62.8457   1
  -8  14  -8 765.799 47.6708   1
 -14  -9  -1 211.322 50.3724   1
  -9  14   1 146.903 47.6988   1
  -9  14  -1 167.628 47.9943   1
 -14  -9   1 79.2582 47.6172   1
 -14  -9   3 85.8795 50.1493   1
  14   9  -3 207.376 40.1125   1
 -14  -9  -3 129.053 48.1815   1
  -9  14   3 124.913 55.5144   1
  -9  14  -3 115.502 41.8432   1
 -14  -9  -5 141.268 46.6080   1
  14   9  -5 74.4187 40.8878   1
 -14  -9   5 115.122 53.1591   1
  -9  14   5 134.745 67.3810   1
  -9  14  -5 154.759 35.6279   1
  -9  14  -7-13.6294 34.4358   1
 -14  -9  -7 44.4862 53.3390   1
  14   9  -7 46.5657 47.6511   1
 -14  -9   7 96.1881 64.0811   1
  -9  14   7 208.672 78.4687   1
 -14  -9   9 92.6913 68.0122   1
 -14  -9  -9 113.297 58.7542   1
  14   9  -9 43.4774 54.4768   1
  -9  14   9 159.806 85.8094   1
 -10  14   0 158.845 45.5964   1
 -14 -10   0 136.269 45.5517   1
 -14 -10   2 63.3441 53.5507   1
  14  10  -2 54.7020 35.8382   1
 -14 -10  -2-1.06708 51.8797   1
 -10  14   2 70.8533 54.1189   1
 -10  14  -2 48.9629 44.2590   1
 -14 -10   4 150.068 53.4077   1
  14  10  -4 77.1058 39.8046   1
 -14 -10  -4 187.257 53.1011   1
 -10  14   4 78.9139 61.5280   1
 -10  14  -4 101.799 36.4049   1
 -14 -10  -6 100.878 53.2356   1
  14  10  -6 0.42206 46.2514   1
 -14 -10   6 5.02312 56.9427   1
 -10  14   6-41.5123 77.3358   1
 -14 -10  -8 244.258 63.4449   1
  14  10  -8 132.083 51.6214   1
 -10  14   8 147.702 81.7027   1
 -14 -10   8 127.624 67.4671   1
 -14 -11   1 299.980 55.8406   1
 -11  14   1 285.499 53.9701   1
 -14 -11  -1 151.277 52.3073   1
 -11  14  -1 338.156 46.6324   1
 -14 -11   3 92.8212 54.7777   1
  14  11  -3 117.582 38.3901   1
 -14 -11  -3 126.045 51.5541   1
 -11  14  -3 216.684 42.1058   1
 -11  14   3 101.950 58.0257   1
  14  11  -5 177.529 47.2060   1
 -14 -11   5 162.998 62.0289   1
 -14 -11  -5 218.610 52.9581   1
 -11  14   5 193.612 70.3483   1
 -14 -11  -7 13.6590 58.3880   1
  14  11  -7-88.1659 51.4747   1
 -14 -11   7 84.1071 64.1687   1
 -11  14   7-55.0851 78.2689   1
 -12  14   0 13.3210 45.4831   1
 -14 -12   0 28.1975 48.6941   1
 -14 -12   2 1.31711 52.3219   1
  14  12  -2 52.3324 38.3852   1
 -14 -12  -2 63.4993 53.1648   1
 -12  14   2 19.2818 52.4212   1
 -12  14  -2-36.7936 39.9610   1
 -14 -12   4-48.9287 53.5899   1
 -14 -12  -4-42.1841 50.6711   1
 -12  14   4 10.5393 62.6206   1
  14  12  -6 105.521 49.9643   1
 -14 -12  -6 72.3668 56.2169   1
 -14 -12   6 124.400 61.4938   1
 -12  14   6 151.600 77.3584   1
 -14 -12  -8 26.3012 62.2502   1
  14  12  -8 81.7139 57.6161   1
 -12  14   8-93.3451 85.7180   1
 -14 -13   1 375.084 58.4728   1
 -13  14   1 304.745 55.0194   1
 -13  14  -1 351.651 49.1611   1
 -14 -13  -1 219.398 58.2432   1
 -14 -13   3 72.8374 59.1693   1
  14  13  -3 44.8673 41.3628   1
 -14 -13  -3 1.46855 54.0811   1
 -13  14  -3-3.48366 38.7622   1
 -14 -13  -5 604.345 71.4188   1
  14  13  -5 562.171 57.8118   1
 -14 -13  -7-106.565 61.6260   1
  14  13  -7 50.2313 54.2721   1
 -14 -13   7 5.46875 53.4969   1
 -13  14   7 28.1018 80.3493   1
 -14  14   0-42.1138 45.2727   1
 -14 -14   0-49.5618 55.1955   1
 -14 -14  -2 371.579 61.3084   1
 -14 -14   2 283.147 63.1854   1
 -14  14  -2 339.956 45.1816   1
 -14 -14   4-14.2529 55.3038   1
  14  14  -4 109.206 46.2050   1
 -14 -14  -4 105.815 62.9639   1
  14  14  -6 52.9070 53.7608   1
 -14 -14  -6 99.0717 63.6994   1
 -14 -14   6 5.57237 57.7148   1
 -14 -15  -1 70.0296 62.8884   1
 -15  14  -1-4.28329 42.7410   1
 -14 -15   1-21.5906 57.4592   1
 -15  14   3 149.377 62.8531   1
 -14 -15   3 106.422 62.7352   1
  14  15  -3-37.9787 48.5729   1
 -14 -15  -3 99.4419 61.8024   1
  14  15  -5 137.688 56.6708   1
 -14 -15   5 19.2910 60.5689   1
 -15  14   5 75.1061 75.1615   1
 -14 -15  -5 41.2662 60.8178   1
 -15  13   0 240.306 48.7573   1
 -13 -15   0 182.537 55.5001   1
 -13 -15   2 263.518 56.4075   1
 -13 -15  -2 328.180 62.6031   1
  13  15  -2 218.995 53.8488   1
 -15  13   2 335.706 57.3168   1
 -13 -15   4-49.1472 56.9037   1
  13  15  -4 128.096 53.9012   1
 -13 -15  -4 76.6797 60.8482   1
 -15  13   4 69.3981 62.2432   1
 -15  13   6 344.448 83.8770   1
  13  15  -6 106.280 53.0029   1
 -13 -15  -6 228.282 67.5644   1
 -13 -15   6 189.129 66.5398   1
 -15  12   1-9.06247 40.9896   1
  12  15  -1 16.9092 48.7005   1
 -15  12  -1-11.2469 35.8375   1
 -12 -15  -1 20.6978 55.1285   1
 -12 -15   1 33.5512 49.9190   1
 -15  12   3 109.039 53.4981   1
 -12 -15   3 41.9846 55.2329   1
  12  15  -3-5.75583 51.6258   1
 -12 -15  -3-28.6241 60.4479   1
 -15  12   5-84.7809 67.0707   1
  12  15  -5 78.0363 52.6563   1
 -12 -15   5-20.3327 57.2772   1
 -12 -15  -5 60.4845 64.2439   1
  12  15  -7 75.0808 59.2515   1
 -12 -15  -7 54.4637 61.3488   1
 -12 -15   7 70.9413 61.2086   1
 -15  12   7-62.8534 77.2829   1
  11  15   0 100.147 44.8295   1
 -15  11   0 77.7964 36.1600   1
 -11 -15   0 76.4585 56.3853   1
  11  15   2 750.471 60.4745   1
  11  15  -2 682.754 58.4983   1
 -11 -15  -2 848.659 74.8572   1
 -15  11   2 708.670 59.1582   1
 -11 -15   2 681.508 67.5313   1
 -11 -15   4 19.4126 54.3423   1
  11  15  -4 148.484 54.5514   1
 -11 -15  -4 148.727 62.2344   1
 -15  11   4 109.746 59.6829   1
 -11 -15  -6 374.373 66.8896   1
  11  15  -6 452.129 64.1893   1
 -15  11   6 353.775 75.1879   1
 -11 -15   6 326.201 69.5486   1
 -11 -15  -8-80.7499 66.5076   1
  11  15  -8-65.4011 54.2622   1
 -15  11   8 13.8292 80.7422   1
  10  15   1 1727.92 78.4172   1
  10  15  -1 1458.45 70.8160   1
 -15  10  -1 1528.11 51.3612   1
 -15  10   1 1571.35 63.1804   1
 -10 -15  -1 1408.46 79.9262   1
 -10 -15   1 1255.62 72.1935   1
  10  15  -3 494.778 56.7179   1
 -10 -15  -3 577.320 69.9538   1
 -15  10   3 581.839 57.7606   1
 -10 -15   3 470.808 64.3666   1
  10  15   3 503.047 55.6620   1
 -10 -15  -5 2064.31 92.0018   1
  10  15  -5 2523.67 100.670   1
 -15  10   5 2360.00 99.9524   1
 -10 -15   5 2223.91 98.9334   1
  10  15  -7 47.6471 51.7425   1
 -10 -15  -7 30.1111 62.2226   1
 -10 -15   7 72.0774 59.4820   1
 -15  10   7-82.4733 75.3606   1
   9  15   0 119.100 50.6364   1
 -15   9   0 109.743 36.5173   1
  -9 -15   0 35.2358 56.1624   1
   9  15  -2 275.928 53.0070   1
  -9 -15   2 343.997 59.6783   1
  -9 -15  -2 260.492 61.7576   1
 -15   9  -2 263.938 29.8322   1
 -15   9   2 304.971 50.6084   1
   9  15   2 292.465 48.6985   1
   9  15  -4 274.034 53.3699   1
   9  15   4 86.0565 48.4936   1
  -9 -15   4 37.1537 52.7371   1
  -9 -15  -4 146.187 59.8810   1
 -15   9   4 135.901 54.8594   1
   9  15  -6 135.570 58.2199   1
 -15   9   6 328.880 70.5600   1
  -9 -15  -6 119.663 62.6202   1
  -9 -15   6 151.482 60.9075   1
  -9 -15  -8 41.0982 65.6421   1
   9  15  -8 59.7253 54.6780   1
 -15   9   8 14.9897 76.0421   1
   8  15   1 159.637 49.3385   1
 -15   8   1 171.688 40.3275   1
 -15   8  -1 153.084 30.8314   1
  -8 -15  -1 100.342 60.9237   1
  -8 -15   1 126.718 50.3107   1
   8  15  -1 245.726 52.7646   1
  -8 -15   3-76.2383 55.4154   1
   8  15  -3 45.7293 48.5674   1
  -8 -15  -3-101.889 59.5867   1
 -15   8   3-17.5601 49.1500   1
  -8 -15  -5 462.325 65.9868   1
 -15   8   5 543.624 72.2288   1
   8  15  -5 262.499 59.0066   1
  -8 -15   5 342.534 61.0533   1
   8  15   5 374.711 59.3991   1
 -15   8   7 16.0321 65.4683   1
  -8 -15  -7 58.3995 62.1264   1
   8  15  -7 61.8581 58.4358   1
   8  15  -9 250.689 62.6535   1
  -8 -15  -9 219.287 60.2079   1
 -15   8   9 194.648 86.0724   1
  -7 -15   0 477.474 59.3867   1
 -15   7   0 506.487 38.3100   1
   7  15   0 478.290 56.8497   1
 -15   7   2 70.7050 43.5682   1
   7  15   2 62.7233 51.3332   1
   7  15  -2 114.284 50.5779   1
 -15   7  -2 27.7865 22.7318   1
  -7 -15   2 122.713 53.8264   1
  -7 -15  -2 52.3848 54.4713   1
  -7 -15  -4 309.879 59.8024   1
  -7 -15   4 198.904 54.9752   1
   7  15  -4 221.618 51.9520   1
 -15   7   4 320.181 58.5154   1
   7  15   4 242.567 52.4516   1
   7  15  -6 54.0782 55.8782   1
  -7 -15  -6 41.7758 61.1122   1
  -7 -15   6 11.4904 53.1992   1
 -15   7   6 8.24683 63.5905   1
 -15   7   8 21.6882 66.7466   1
  -7 -15  -8 154.487 58.5188   1
   7  15  -8-0.64919 51.7373   1
   6  15   1 86.4927 51.5086   1
   6  15  -1 120.349 51.2200   1
 -15   6  -1 161.797 32.1864   1
 -15   6   1 98.9324 34.2653   1
  -6 -15  -1 98.0994 52.4678   1
  -6 -15   1 53.8060 50.9454   1
  -6 -15   3 225.631 58.4657   1
   6  15   3 212.615 49.2371   1
  -6 -15  -3 244.075 58.3053   1
 -15   6   3 190.701 42.3153   1
   6  15  -3 248.413 55.4981   1
   6  15   5 59.7792 55.9079   1
   6  15  -5-35.1900 49.5106   1
  -6 -15  -5-0.35636 60.3466   1
  -6 -15   5 62.7452 50.8149   1
 -15   6   5 57.8988 59.1994   1
  -6 -15  -7 83.9285 55.3091   1
   6  15  -7 81.6884 58.7504   1
 -15   6   7 91.8220 66.5861   1
 -15   6   9 120.687 74.2206   1
  -6 -15  -9 87.5060 66.1440   1
   6  15  -9 67.4982 58.1791   1
  -5 -15   0 294.850 54.9282   1
   5  15   0 319.546 65.8530   1
  -5 -15  -2 331.324 56.5093   1
 -15   5   2 394.926 50.0786   1
  -5 -15   2 333.130 53.5317   1
   5  15   2 363.740 58.6381   1
   5  15  -2 377.220 57.1213   1
  -5 -15  -4 416.909 62.1411   1
 -15   5   4 369.308 51.3466   1
  -5 -15   4 553.472 64.0903   1
   5  15   4 426.806 65.2907   1
   5  15   6 156.219 58.8716   1
   5  15  -6 69.6067 56.0779   1
  -5 -15  -6 132.916 63.8868   1
 -15   5   6 207.321 64.9344   1
   5  15  -8 611.649 71.9501   1
  -5 -15  -8 541.580 76.0711   1
 -15   5   8 652.579 83.6150   1
 -15   5  10-2.67021 71.3813   1
  -5 -15 -10 67.9699 64.1718   1
   5  15 -10 15.4285 54.4524   1
   5  15  10-6.21799 58.4206   2
   4  15   1 118.727 53.3086   1
   4  15  -1 141.805 55.4840   1
 -15   4  -1 114.374 29.6214   1
  -4 -15  -1 114.223 51.7376   1
  -4 -15   1 94.4187 50.6572   1
 -15   4   1 69.2225 35.7999   1
   4  15   3 2.50884 56.1375   1
  -4 -15   3-12.6125 52.3923   1
   4  15  -3 93.8974 54.3056   1
 -15   4   3 19.3301 41.8212   1
  -4 -15  -3 73.0413 51.2091   1
   4  15  -5 302.855 57.9531   1
  -4 -15  -5 323.177 63.7629   1
  -4 -15   5 142.609 52.9980   1
 -15   4   5 310.268 55.6136   1
   4  15   5 391.244 60.7530   1
   4  15  -7-45.1746 52.5298   1
 -15   4   7-30.3751 64.4600   1
   4  15   7 56.9783 59.6321   1
  -4 -15  -9 104.974 66.0966   1
   4  15  -9 121.915 60.5665   1
   4  15   9 91.3534 55.0005   2
 -15   4   9 220.037 78.8182   1
  -3 -15   0 325.880 56.3541   1
 -15   3   0 260.524 37.7499   1
   3  15   0 320.474 64.1603   1
   3  15   2 63.6811 53.7472   1
   3  15  -2 140.282 57.2143   1
  -3 -15  -2 170.526 58.5821   1
 -15   3  -2 170.896 26.1409   1
  -3 -15   2 144.259 46.2711   1
 -15   3   2 192.377 42.3143   1
   3  15  -4 116.268 53.2931   1
  -3 -15   4 196.619 51.2873   1
  -3 -15  -4 258.326 59.9594   1
 -15   3   4 232.659 49.3519   1
   3  15   4 302.946 62.3099   1
   3  15  -6 55.8328 51.8660   1
  -3 -15  -6 42.7367 52.4366   1
 -15   3   6 86.8268 55.6373   1
   3  15   6 25.9874 56.2750   1
  -3 -15  -8 199.699 71.6483   1
   3  15  -8 171.966 58.9352   1
 -15   3   8 408.304 80.3570   1
   3  15   8 215.496 62.4675   1
  -3 -15 -10-8.46782 57.8426   1
   3  15 -10 53.4894 55.4778   1
 -15   3  10 43.8419 79.5686   1
   2  15   1 227.169 55.4605   1
   2  15  -1 248.266 62.2914   1
  -2 -15  -1 253.543 59.1040   1
 -15   2  -1 194.884 29.4545   1
  -2 -15   1 91.7891 49.1295   1
 -15   2   1 246.736 38.9796   1
  -2 -15  -3 266.920 55.3419   1
  -2 -15   3 155.522 49.7335   1
   2  15  -3 167.680 57.3973   1
 -15   2  -3 195.492 24.5388   1
   2  15   3 289.575 67.1898   1
 -15   2   3 175.439 46.1990   1
   2  15  -5 147.409 52.7514   1
  -2 -15  -5 141.705 60.3894   1
 -15   2   5 168.819 56.5749   1
   2  15   5 149.803 62.0465   1
  -2 -15  -7 87.9203 61.2221   1
   2  15  -7 72.4909 50.4923   1
 -15   2   7 51.5043 54.5653   1
   2  15   7 38.4030 61.7409   1
  -2 -15  -9-9.75070 55.1208   1
   2  15  -9 72.4035 56.9021   1
 -15   2   9 50.6654 73.9840   1
  -1 -15   0 7960.61 136.729   1
   1  15   0 7738.45 139.829   1
   1  15  -2 3.91974 52.0197   1
  -1 -15  -2-31.9287 54.2835   1
 -15   1   2 6.04892 36.2221   1
 -15   1  -2 21.4937 23.3689   1
  -1 -15   2-16.4899 43.3897   1
   1  15   2-11.2541 52.8695   1
 -15   1  -4 4651.07 63.8514   1
 -15   1   4 4764.50 116.046   1
   1  15   4 6017.44 143.651   1
   1  15  -4 5489.26 121.971   1
  -1 -15  -4 5706.59 129.222   1
   1  15  -6 93.7273 50.4143   1
  -1 -15  -6 8.49863 52.7645   1
 -15   1   6 6.43007 55.8873   1
   1  15   6-38.2757 59.7084   1
   1  15  -8 1048.80 71.5429   1
 -15   1   8 1189.21 88.2570   1
   1  15   8 1422.24 87.6138   1
  -1 -15  -8 1511.87 91.1959   1
  -1 -15 -10 48.5023 73.6299   1
   1  15 -10 43.3594 55.0834   1
 -15   1  10-14.4419 72.1575   1
   0 -15  -1 10262.7 155.079   1
   0 -15   1 9384.49 147.747   1
 -15   0  -1 8813.48 102.485   1
 -15   0   1 8386.21 117.454   1
   0  15   1 9897.11 157.262   1
   0  15  -1 9967.92 156.126   1
   0 -15  -3 7156.04 135.839   1
   0  15  -3 7301.68 134.045   1
 -15   0   3 7297.05 131.300   1
 -15   0   5 8975.66 164.272   1
   0  15   5 9986.60 178.766   1
   0 -15  -5 9345.78 162.500   1
 -15   0  -5 9644.89 90.5227   1
   0  15  -5 10183.7 159.715   1
   0  15  -7 1012.95 69.1635   1
 -15   0   7 706.773 71.5611   1
   0  15   7 897.018 81.3076   1
   0 -15  -7 864.868 82.5216   1
   0  15  -9 4941.92 121.333   1
 -15   0   9 4480.70 147.038   1
   0  15   9 5100.78 149.708   1
   0 -15  -9 4563.63 132.727   1
   1 -15   0 5134.38 106.162   1
  -1  15   0 5321.50 118.115   1
   1 -15  -2 1365.51 71.1002   1
 -15  -1  -2 1224.09 46.9110   1
   1 -15   2 1162.11 59.3909   1
 -15  -1   2 1072.91 61.2808   1
  -1  15   2 1199.07 73.8629   1
  -1  15  -2 1483.95 77.3159   1
 -15  -1   4 2445.86 90.3790   1
 -15  -1  -4 2524.06 51.8714   1
  -1  15   4 3258.11 109.498   1
  -1  15  -4 2680.89 86.9639   1
   1 -15  -4 3575.34 106.323   1
 -15  -1   6 1142.99 83.3132   1
  -1  15   6 1508.34 95.0395   1
 -15  -1  -6 1192.87 44.6120   1
   1 -15  -6 1420.18 86.1451   1
  -1  15  -6 926.054 60.7004   1
  -1  15  -8 660.826 59.4704   1
 -15  -1   8 729.195 81.1210   1
  -1  15   8 842.276 85.6815   1
   1 -15  -8 806.093 68.8986   1
  -1  15 -10 612.692 66.1649   1
 -15  -1  10 596.439 88.9798   1
  -1  15  10 822.202 93.5874   1
   1 -15 -10 567.921 80.2099   1
 -15  -2   1 70.5864 38.4130   1
   2 -15  -1 118.991 44.0549   1
   2 -15   1 90.0457 37.9313   1
 -15  -2  -1 60.4982 31.5209   1
  -2  15   1 98.9834 51.9347   1
  -2  15  -1 147.699 52.4986   1
   2 -15  -3 991.254 63.5530   1
 -15  -2  -3 953.951 43.4137   1
  -2  15   3 1093.16 84.6651   1
 -15  -2   3 884.071 63.5855   1
  -2  15  -3 936.743 67.1909   1
  -2  15  -5-15.8191 47.0032   1
   2 -15  -5-42.9564 52.0740   1
 -15  -2  -5 39.4155 29.9935   1
 -15  -2   5 64.6558 50.9168   1
  -2  15   5-4.73185 64.6605   1
 -15  -2   7 607.665 75.5960   1
  15   2  -7 688.401 52.7474   1
 -15  -2  -7 720.202 42.9227   1
   2 -15  -7 607.774 71.7064   1
  -2  15  -7 549.530 53.4944   1
   2 -15  -9 142.051 72.8176   1
  -2  15  -9 75.7434 46.8959   1
  15   2  -9 12.5472 54.1945   1
 -15  -2   9-62.0295 69.0128   1
  -2  15   9-11.6783 70.5908   1
 -15  -3   0 237.628 41.1219   1
   3 -15   0 147.022 38.5059   1
  -3  15   0 223.514 54.1607   1
 -15  -3  -2 131.752 33.4913   1
 -15  -3   2 35.0321 43.7934   1
   3 -15  -2 66.8818 42.7834   1
  -3  15   2 121.147 60.3958   1
  -3  15  -2 58.3805 49.5354   1
  -3  15  -4 167.210 54.4005   1
 -15  -3  -4 125.363 30.9652   1
   3 -15  -4 239.676 53.2239   1
 -15  -3   4 73.0155 52.8185   1
  -3  15   4 196.506 68.4238   1
  -3  15  -6 124.848 47.1469   1
   3 -15  -6 144.458 61.8187   1
 -15  -3  -6 104.954 33.2936   1
  15   3  -6 53.6565 37.8022   1
  -3  15   6 233.421 73.0582   1
 -15  -3   6 63.8237 58.3871   1
 -15  -3  -8 71.0893 36.3935   1
   3 -15  -8 114.488 58.5041   1
  -3  15  -8 17.6327 45.4077   1
 -15  -3   8 147.687 68.9673   1
  15   3  -8 118.449 49.5864   1
  -3  15   8 74.8867 78.7533   1
   3 -15 -10 68.3849 71.2907   1
  -3  15 -10 67.3223 49.6510   1
  15   3 -10-55.9475 56.3807   1
  -3  15  10 87.2902 83.8117   1
 -15  -3  10 118.437 63.9854   1
   4 -15  -1 699.570 48.7823   1
 -15  -4  -1 662.650 48.5133   1
 -15  -4   1 643.559 54.6383   1
  -4  15   1 724.614 66.8851   1
  -4  15  -1 753.127 60.6394   1
   4 -15  -3 1322.17 64.2814   1
 -15  -4  -3 1469.66 56.4750   1
 -15  -4   3 1142.70 68.9215   1
  -4  15   3 1714.66 95.6061   1
  -4  15  -3 1539.49 74.6077   1
  -4  15  -5 115.338 45.4885   1
   4 -15  -5 149.339 50.2133   1
 -15  -4  -5 98.7958 33.7768   1
  15   4  -5 71.9510 34.1465   1
 -15  -4   5 141.861 64.1474   1
  -4  15   5 97.9466 69.6735   1
 -15  -4   7 798.075 86.4633   1
  15   4  -7 765.779 58.3571   1
  -4  15   7 1172.10 95.8739   1
   4 -15  -7 983.369 78.9041   1
 -15  -4  -7 985.316 55.5518   1
  -4  15  -7 725.608 55.5549   1
   4 -15  -9-14.0808 69.6795   1
 -15  -4  -9-1.10090 43.5623   1
  -4  15  -9 54.4663 43.1424   1
 -15  -4   9 29.6902 60.6246   1
  15   4  -9 60.1268 52.3427   1
  -4  15   9 37.6579 77.2472   1
 -15  -5   0 4204.79 91.9725   1
  -5  15   0 3816.32 110.059   1
 -15  -5  -2 3731.22 82.9668   1
  -5  15   2 3584.96 115.506   1
 -15  -5  -4 2649.40 72.0311   1
  -5  15   4 2457.14 110.082   1
 -15  -5   4 2662.82 102.265   1
  -5  15  -4 3200.02 88.8826   1
   5 -15  -4 3303.81 94.3200   1
 -15  -5   6 1169.13 78.3640   1
  15   5  -6 1271.94 63.2572   1
  -5  15   6 1341.04 95.2069   1
  -5  15  -6 1386.02 64.2694   1
 -15  -5   8 1472.97 99.6591   1
  15   5  -8 1703.04 78.8135   1
  -5  15   8 2684.46 126.459   1
   5 -15  -8 2316.20 99.4778   1
 -15  -5  -8 2058.85 79.7895   1
  -5  15  -8 2280.10 76.6959   1
  -5  15 -10 304.926 50.3523   1
  15   5 -10 456.562 70.9269   1
 -15  -5  10 368.430 72.8785   1
  -5  15  10 436.903 95.1273   1
   5 -15 -10 323.667 77.2388   1
 -15  -5 -10 400.514 60.4080   1
 -15  -6   1 66.1375 42.1281   1
 -15  -6  -1 76.9892 44.2561   1
  -6  15   1-15.2192 58.5869   1
  -6  15  -1 127.932 53.4078   1
 -15  -6   3 135.133 50.6491   1
 -15  -6  -3 99.3396 40.7279   1
  -6  15   3 85.9533 62.1699   1
  -6  15  -3 146.539 46.5765   1
  -6  15  -5 9.12769 42.7458   1
   6 -15  -5-21.2057 43.5631   1
 -15  -6  -5 16.9791 36.0935   1
  15   6  -5 19.9765 35.2872   1
 -15  -6   5 20.8214 52.8027   1
  -6  15   5-12.7854 66.7940   1
  -6  15  -7 89.2617 41.9463   1
   6 -15  -7 140.942 60.2310   1
 -15  -6  -7 92.8355 44.2165   1
  15   6  -7 38.7255 46.0975   1
  -6  15   7 202.575 74.8295   1
 -15  -6   7 87.1378 65.1449   1
   6 -15  -9 34.7311 67.3605   1
 -15  -6  -9 26.6892 48.8879   1
  -6  15  -9 96.2281 43.8750   1
 -15  -6   9 79.0195 64.1566   1
  15   6  -9 75.6809 50.9330   1
  -6  15   9 40.4976 80.1165   1
 -15  -7   0 109.971 41.8330   1
  -7  15   0-14.8104 55.6047   1
 -15  -7   2-2.37820 50.1661   1
 -15  -7  -2-16.8820 41.6682   1
  -7  15   2 44.2553 60.7176   1
  -7  15  -2 3.42518 44.8219   1
 -15  -7   4 85.7020 55.2643   1
 -15  -7  -4-2.77888 44.5474   1
  -7  15   4 17.6627 63.2291   1
  -7  15  -4 57.8022 41.4005   1
  -7  15  -6 75.2585 42.0481   1
 -15  -7  -6 19.3461 43.0765   1
  15   7  -6 40.4720 42.5736   1
 -15  -7   6-3.42501 61.4567   1
  -7  15   6-58.0282 71.4068   1
 -15  -7   8-38.5456 68.5373   1
  -7  15  -8 67.9959 39.0838   1
 -15  -7  -8 11.1900 44.7929   1
  15   7  -8-25.8910 52.0770   1
  -7  15   8 167.981 78.2705   1
 -15  -8  -1 108.547 48.8026   1
  -8  15   1 17.5745 55.6470   1
  -8  15  -1 86.6414 52.0094   1
 -15  -8   1 48.1637 49.1335   1
 -15  -8   3 66.7789 51.5930   1
 -15  -8  -3 54.0578 44.4597   1
  -8  15   3 130.255 61.4343   1
  -8  15  -3 119.135 45.1573   1
 -15  -8  -5 89.0518 42.4872   1
  15   8  -5 14.0300 38.7661   1
 -15  -8   5 21.8103 52.6981   1
  -8  15   5 140.241 67.4159   1
  -8  15  -5 10.6641 37.5224   1
  -8  15  -7 72.5866 43.1288   1
 -15  -8  -7-48.8852 53.4723   1
  15   8  -7-38.8225 44.7802   1
  -8  15   7 47.2057 75.7653   1
 -15  -8   7 39.5012 55.5539   1
 -15  -8   9 1.20812 67.6500   1
  15   8  -9 34.6915 55.5023   1
  -8  15   9-46.9323 82.3605   1
  -9  15   0 213.233 54.3128   1
 -15  -9   0 87.9498 43.5581   1
  -9  15   2 2059.52 87.4852   1
  -9  15  -2 1913.43 79.8273   1
 -15  -9   4 82.6420 53.1068   1
  15   9  -4 65.7466 39.9213   1
 -15  -9  -4 56.4401 42.8574   1
  -9  15   4 76.4484 56.4134   1
  -9  15  -4 2.16507 40.1127   1
 -15  -9  -6 695.345 60.8310   1
  15   9  -6 670.630 56.5391   1
  -9  15  -6 684.191 51.4857   1
 -15  -9   6 560.162 72.5244   1
 -15  -9  -8 9.82794 55.4385   1
  15   9  -8 3.53337 49.8857   1
  -9  15   8 96.6533 70.3047   1
 -15  -9   8 35.5590 63.6228   1
 -15 -10  -1 483.668 59.1092   1
 -15 -10   1 650.987 65.3364   1
 -10  15   1 703.568 61.8290   1
 -10  15  -1 488.888 58.1278   1
 -15 -10  -3 228.432 52.4009   1
 -15 -10   3 348.459 59.7612   1
 -10  15   3 357.489 64.1998   1
 -10  15  -3 269.057 48.4975   1
 -15 -10  -5 188.880 48.7961   1
  15  10  -5 162.828 46.3704   1
 -15 -10   5 147.010 59.9246   1
 -10  15   5 91.0872 66.8529   1
 -10  15  -5 188.941 39.8597   1
 -15 -10  -7 148.405 58.0232   1
  15  10  -7 11.9387 46.9040   1
 -15 -10   7 29.9987 62.9771   1
 -10  15   7 130.261 76.7157   1
 -11  15   0-37.9891 47.9502   1
 -15 -11   0 5.60134 46.0143   1
 -15 -11  -2 334.469 53.5451   1
 -11  15   2 439.112 61.6194   1
 -11  15  -2 329.658 53.3631   1
 -15 -11   4 73.2797 55.0953   1
 -15 -11  -4 22.2133 49.9248   1
 -11  15   4 79.3435 64.1141   1
 -11  15  -4 77.3865 40.4254   1
  15  11  -6 88.7965 50.4329   1
 -15 -11  -6 178.661 50.9310   1
 -15 -11   6 162.592 62.9458   1
 -11  15   6 232.883 79.4588   1
 -15 -11  -8 38.1580 60.8214   1
  15  11  -8 12.1278 52.0302   1
 -11  15   8-80.7741 86.5429   1
 -15 -11   8 84.4556 65.0526   1
 -15 -12  -1-30.2763 54.3637   1
 -12  15   1-32.2872 50.5680   1
 -12  15  -1 120.834 48.7168   1
 -15 -12   1 56.6787 56.9615   1
 -15 -12   3 71.4350 53.9896   1
 -15 -12  -3 62.2495 50.9707   1
 -12  15   3 62.5563 62.2565   1
 -12  15  -3 58.0008 44.9377   1
  15  12  -5 84.2438 48.9109   1
 -15 -12   5 24.7435 61.9129   1
 -15 -12  -5-1.08238 55.5653   1
 -12  15   5 22.9051 69.5344   1
 -15 -12  -7 54.3986 57.9004   1
  15  12  -7 105.958 54.4904   1
 -15 -12   7 88.3531 65.7698   1
 -12  15   7 141.222 83.4017   1
 -13  15   0 153.071 50.3129   1
 -15 -13   0 37.5731 51.0342   1
 -15 -13  -2 620.243 63.5892   1
 -13  15   2 611.744 67.6348   1
 -13  15  -2 485.898 51.7575   1
 -15 -13   4 2.96804 57.4559   1
 -15 -13  -4-104.741 61.8672   1
 -13  15   4-16.0282 63.3023   1
 -15 -13  -6 297.205 62.4133   1
  15  13  -6 133.487 54.7203   1
 -15 -13   6 171.068 66.8165   1
 -13  15   6 190.607 76.6983   1
 -15 -14  -1 3.38191 57.4056   1
 -14  15   1-12.9325 53.3208   1
 -14  15  -1 11.0232 47.0768   1
 -15 -14   1 87.0315 58.6041   1
 -15 -14  -3 96.4785 63.4044   1
 -14  15   3 153.220 63.0873   1
 -15 -14   5 30.4586 56.9727   1
 -15 -14  -5 14.5263 57.0487   1
 -14  15   5 179.793 72.2894   1
 -15 -15   0 999.394 74.3497   1
 -15  15   0 806.336 66.7211   1
 -15 -15  -2 824.342 78.5118   1
 -15  15   2 777.667 71.6511   1
 -15 -15  -4 449.088 64.8201   1
 -15 -15   4 526.517 71.2382   1
 -16  15   1 316.526 59.3945   1
 -16  15  -1 274.656 50.6813   1
 -15 -16  -1 158.817 63.7297   1
 -15 -16   1 97.9500 58.6190   1
 -14 -16   0 299.187 60.1886   1
 -14 -16   2 116.101 63.3767   1
 -16  14   2 163.912 54.7289   1
 -14 -16  -2 235.713 63.3197   1
 -14 -16   4 163.606 60.9606   1
  14  16  -4 164.509 52.7111   1
 -14 -16  -4 85.8751 61.6142   1
 -16  14   4 6.97669 64.8969   1
 -16  13  -1 10.7932 42.9204   1
 -13 -16  -1 88.8203 61.4762   1
 -16  13   1 69.5353 48.4301   1
 -13 -16   1 19.8204 56.1318   1
 -13 -16   3 77.6512 60.6944   1
  13  16  -3 32.4027 53.9795   1
 -13 -16  -3 3.42955 60.7207   1
 -16  13   3-62.9447 58.7229   1
  13  16  -5-61.3019 52.5729   1
 -13 -16   5 71.4381 56.8345   1
 -13 -16  -5-0.19315 61.8595   1
  12  16   0 401.582 56.2839   1
 -12 -16   0 296.672 62.5699   1
 -16  12   0 375.244 45.9549   1
  12  16  -2-7.36176 55.3082   1
 -12 -16  -2 173.051 62.6728   1
 -16  12   2 15.0959 48.5246   1
 -12 -16   2 91.4844 52.9243   1
  12  16  -4 452.456 63.2054   1
 -12 -16  -4 374.811 69.7911   1
 -12 -16   4 304.916 63.7427   1
 -16  12   4 343.175 66.4257   1
 -16  12   6 99.3246 75.9698   1
  12  16  -6 28.0925 53.3076   1
 -12 -16  -6 49.9339 62.6625   1
 -12 -16   6 13.1800 63.5575   1
  11  16   1 39.5867 49.4551   1
  11  16  -1 108.459 52.3932   1
 -16  11   1 153.886 41.8605   1
 -16  11  -1 17.1248 33.0790   1
 -11 -16  -1 95.6672 56.7385   1
 -11 -16   1 73.9368 52.1437   1
  11  16  -3 47.2685 54.1466   1
 -16  11   3 86.4236 54.9062   1
 -11 -16  -3 98.1684 64.3428   1
  11  16  -5 161.702 58.9124   1
 -11 -16   5-0.76352 55.5429   1
 -11 -16  -5 137.600 64.3523   1
 -16  11   5 134.887 67.5751   1
 -16  11   7 66.4754 79.1284   1
  11  16  -7 76.9112 55.3631   1
 -11 -16  -7 27.1347 61.7601   1
 -11 -16   7-67.1336 62.7916   1
  10  16   0 59.4409 51.8006   1
 -16  10   0 69.3852 35.8779   1
  10  16   2 226.124 52.5249   1
 -10 -16  -2 328.683 68.8696   1
  10  16  -2 264.296 54.4515   1
 -10 -16   2 247.354 58.4599   1
 -16  10   2 186.989 49.8540   1
 -16  10   4 38.3497 55.9869   1
 -10 -16   4-19.8009 56.7746   1
  10  16  -4-6.78428 56.8395   1
 -10 -16  -4 128.055 67.3948   1
  10  16  -6 66.4244 59.9369   1
 -10 -16  -6 114.784 62.0301   1
 -16  10   6-50.2746 67.4150   1
 -10 -16   6 133.291 66.6824   1
   9  16  -1 1345.99 74.1730   1
  -9 -16  -1 1337.99 80.0793   1
  -9 -16   1 1196.60 73.2476   1
 -16   9  -1 1217.79 46.5692   1
 -16   9   1 1322.06 63.5399   1
   9  16   1 1436.15 75.3858   1
   9  16  -3 808.791 66.8256   1
  -9 -16  -3 881.587 76.7820   1
   9  16   3 874.357 67.9387   1
 -16   9   3 705.237 65.6213   1
  -9 -16  -5 1142.79 78.3616   1
   9  16  -5 952.122 78.3263   1
 -16   9   5 1244.23 87.3650   1
  -9 -16   5 779.615 74.0585   1
   9  16  -7 237.466 60.2974   1
 -16   9   7 166.347 76.4888   1
  -9 -16  -7 195.216 67.2043   1
  -8 -16   0 9835.91 185.689   1
   8  16   0 10440.3 160.244   1
  -8 -16  -2 968.215 78.9906   1
  -8 -16   2 1076.57 77.8399   1
 -16   8   2 1073.16 63.9556   1
   8  16   2 1056.88 71.3359   1
   8  16  -4 8454.86 156.374   1
  -8 -16  -4 7999.48 161.452   1
  -8 -16   4 8660.42 164.680   1
 -16   8   4 7957.83 154.958   1
   8  16   4 8038.29 158.159   1
   8  16  -6 998.466 81.6908   1
 -16   8   6 915.320 83.2217   1
  -8 -16   6 945.186 80.4091   1
  -8 -16  -6 955.771 80.2597   1
   8  16  -8 2424.10 102.201   1
 -16   8   8 2350.02 118.142   1
  -8 -16  -8 2067.28 102.847   1
   7  16   1 176.136 53.1615   1
   7  16  -1 231.935 51.7895   1
 -16   7  -1 192.862 30.3056   1
  -7 -16   1 259.351 55.2313   1
  -7 -16  -1 179.868 62.1422   1
 -16   7   1 126.444 36.1665   1
  -7 -16   3 141.627 61.4463   1
   7  16   3 106.055 54.1573   1
   7  16  -3 224.771 56.2584   1
  -7 -16  -3 148.039 63.3439   1
 -16   7   3 269.346 55.8230   1
   7  16   5 98.9913 57.4206   1
   7  16  -5 170.404 58.8762   1
  -7 -16   5 78.7748 54.3124   1
  -7 -16  -5 268.345 63.4635   1
 -16   7   5 236.390 62.8149   1
   7  16  -7 234.549 66.4003   1
  -7 -16  -7 72.5244 66.3924   1
 -16   7   7 174.808 71.7645   1
 -16   7   9 6.49669 77.4280   1
  -7 -16  -9 15.1028 57.6868   1
   7  16  -9 54.5971 61.5283   1
 -16   6   0 200.068 35.6569   1
   6  16   0 278.889 57.5079   1
   6  16   2 170.299 52.5180   1
  -6 -16  -2 341.869 61.9976   1
 -16   6   2 238.845 43.5138   1
  -6 -16   2 144.366 54.3362   1
   6  16  -2 247.752 53.8017   1
   6  16   4 39.6214 54.5961   1
 -16   6   4 147.581 59.1938   1
   6  16  -4 157.401 58.3855   1
  -6 -16   4 88.0526 54.1928   1
  -6 -16  -4 12.1570 53.6890   1
   6  16  -6 243.090 60.7594   1
  -6 -16  -6 217.243 65.5070   1
 -16   6   6 312.667 68.1826   1
   6  16   6 464.967 68.7697   1
  -6 -16  -8 9.88156 60.5206   1
   6  16  -8-48.9544 62.8885   1
 -16   6   8 26.8234 68.5361   1
 -16   5   1 1025.23 57.1041   1
  -5 -16   1 1086.04 75.2434   1
   5  16   1 1066.48 68.7929   1
   5  16  -1 1036.83 74.2227   1
 -16   5  -1 913.560 40.3949   1
  -5 -16  -3 817.103 73.6870   1
 -16   5   3 682.448 56.0667   1
  -5 -16   3 870.249 73.6117   1
   5  16   3 850.016 72.8596   1
   5  16  -3 863.359 68.0373   1
   5  16  -5 628.786 68.6231   1
 -16   5   5 642.950 70.7530   1
   5  16   5 587.360 70.4082   1
  -5 -16  -5 734.815 73.1333   1
   5  16  -7 326.333 61.7944   1
 -16   5   7 450.787 72.1968   1
   5  16   7 485.997 72.8427   1
  -5 -16  -7 596.570 73.6949   1
 -16   5   9 374.457 84.0895   1
   5  16  -9 250.437 65.9140   1
  -5 -16  -9 454.305 80.1361   1
  -4 -16   0 950.038 69.5541   1
   4  16   0 1052.42 73.8726   1
  -4 -16  -2 3141.63 102.011   1
 -16   4   2 2994.09 84.0578   1
  -4 -16   2 2769.45 95.1138   1
 -16   4  -2 2713.19 55.0990   1
   4  16   2 3280.44 112.986   1
   4  16  -2 3288.19 104.094   1
 -16   4   4 531.785 57.6012   1
  -4 -16   4 548.898 62.6434   1
   4  16   4 640.316 70.5686   1
   4  16  -4 639.454 68.3048   1
   4  16  -6 1225.81 78.5502   1
 -16   4   6 1425.05 86.3028   1
   4  16   6 1409.44 86.8412   1
  -4 -16  -6 1595.52 91.9877   1
   4  16  -8 218.683 64.5556   1
 -16   4   8 342.782 75.9491   1
  -4 -16  -8 250.682 65.2487   1
  -3 -16  -1 6190.23 132.539   1
  -3 -16   1 6467.38 139.245   1
 -16   3  -1 6671.19 90.1962   1
   3  16   1 7164.53 151.519   1
   3  16  -1 7126.41 143.987   1
 -16   3   1 6496.72 108.286   1
  -3 -16  -3 5732.27 132.951   1
 -16   3   3 6393.48 128.137   1
  -3 -16   3 5489.03 128.786   1
   3  16   3 5297.65 130.770   1
   3  16  -3 6545.01 139.578   1
   3  16   5 4137.86 128.848   1
  -3 -16  -5 4231.17 122.113   1
   3  16  -7 2876.30 98.9291   1
 -16   3   7 2098.73 103.500   1
   3  16   7 2715.89 113.732   1
  -3 -16  -7 2194.61 95.7999   1
   3  16  -9 1670.36 94.4756   1
  -3 -16  -9 1559.42 101.400   1
  -2 -16   0 1556.08 76.1772   1
 -16   2   0 1431.52 55.0832   1
   2  16   0 1621.30 87.5971   1
 -16   2   2 707.425 51.3272   1
  -2 -16  -2 742.296 64.7196   1
  -2 -16   2 560.833 58.2812   1
 -16   2  -2 621.420 35.5321   1
   2  16   2 806.494 70.2390   1
   2  16  -2 738.479 68.8836   1
  -2 -16  -4 1146.58 77.4660   1
 -16   2   4 928.646 71.4902   1
   2  16   4 1115.78 84.5175   1
   2  16  -4 1087.60 74.1517   1
 -16   2   6 236.745 61.3303   1
  -2 -16  -6 274.032 64.3674   1
   2  16   6 235.060 65.8849   1
   2  16  -8 553.978 63.9234   1
 -16   2   8 862.801 94.2406   1
   2  16   8 820.480 79.6023   1
  -2 -16  -8 736.039 81.7911   1
   1  16  -1 63.8893 63.0133   1
 -16   1  -1-20.8771 31.3061   1
 -16   1   1 36.5869 37.4728   1
  -1 -16   1 57.3210 50.9915   1
   1  16   1-91.0649 55.1756   1
   1  16  -3 94.1646 57.0535   1
  -1 -16  -3 188.314 55.2206   1
 -16   1  -3 99.7866 26.5330   1
 -16   1   3 78.2623 42.1198   1
   1  16   3 198.228 61.8684   1
 -16   1   5 241.283 58.3259   1
   1  16   5 260.783 69.8135   1
  -1 -16  -5 334.439 65.3845   1
   1  16  -5 329.476 59.0426   1
   1  16  -7 187.678 55.7309   1
  -1 -16  -7 80.2184 62.1046   1
 -16   1   7 226.723 65.0436   1
   1  16   7 161.564 67.8995   1
  -1 -16  -9 213.244 69.3655   1
   1  16  -9 111.047 57.6107   1
 -16   1   9 176.204 79.0163   1
   1  16   9 111.266 73.2868   1
   0 -16   0 465.827 52.5208   1
 -16   0   0 376.200 40.4948   1
   0  16   0 395.139 63.3159   1
   0 -16  -2 761.418 66.0752   1
 -16   0  -2 660.324 35.9420   1
   0 -16   2 679.453 55.0760   1
 -16   0   2 660.124 54.7426   1
   0  16  -2 769.852 75.1203   1
   0  16  -4 70.1899 58.9562   1
 -16   0  -4 135.824 28.4932   1
   0 -16  -4 144.800 58.0408   1
 -16   0   4 130.217 55.8660   1
   0  16   4 147.113 66.6942   1
 -16   0   6 520.452 69.1787   1
   0  16   6 601.139 75.6832   1
   0 -16  -6 577.375 66.7064   1
   0  16  -6 589.981 61.5995   1
   0 -16  -8 73.6602 69.3349   1
   0  16  -8-3.62670 49.5418   1
 -16   0   8 220.872 71.3166   1
   0  16   8 14.4927 70.9111   1
   0 -16 -10 9.17032 57.2529   1
   0  16 -10 24.6552 55.4047   1
 -16   0  10 83.9999 76.9480   1
   1 -16  -1 602.751 57.7771   1
   1 -16   1 622.608 52.6575   1
 -16  -1  -1 551.169 41.2679   1
 -16  -1   1 527.763 44.5310   1
  -1  16   1 729.910 70.5698   1
  -1  16  -1 681.286 66.7804   1
   1 -16  -3 1897.34 84.6920   1
 -16  -1  -3 1383.63 45.9225   1
  -1  16   3 1987.57 92.8775   1
  -1  16  -3 1582.66 88.7420   1
 -16  -1   3 1277.71 68.4941   1
  -1  16  -5 89.4614 54.3164   1
   1 -16  -5-57.8925 62.8009   1
 -16  -1  -5 82.0889 26.5190   1
  -1  16   5 142.097 66.5547   1
 -16  -1   5 9.42692 54.4028   1
 -16  -1   7 908.127 81.3238   1
  -1  16   7 929.461 88.0591   1
   1 -16  -7 1115.08 89.6215   1
  -1  16  -7 822.215 65.6327   1
   1 -16  -9 29.3001 63.3116   1
  -1  16  -9-74.9219 48.8661   1
  -1  16   9-57.7417 73.7076   1
 -16  -1   9 35.7359 60.4143   1
   2 -16   0 3983.42 92.9324   1
 -16  -2   0 4341.76 91.2025   1
  -2  16   0 4148.91 114.850   1
   2 -16  -2 2137.15 81.8195   1
 -16  -2  -2 2698.21 69.3499   1
 -16  -2   2 2652.58 83.9670   1
  -2  16   2 2330.39 97.5479   1
  -2  16  -2 2459.76 92.6966   1
 -16  -2  -4 2571.08 61.0896   1
  -2  16   4 3032.01 117.067   1
  -2  16  -4 2607.37 93.1056   1
 -16  -2   4 2921.80 104.520   1
   2 -16  -4 2727.10 96.8487   1
 -16  -2   6 550.172 78.1306   1
  -2  16   6 441.391 81.1004   1
   2 -16  -6 355.662 61.0933   1
  -2  16  -6 509.735 60.1904   1
  -2  16  -8 730.824 62.3238   1
 -16  -2   8 579.530 77.1405   1
  -2  16   8 769.587 91.1463   1
   2 -16  -8 871.101 82.6522   1
 -16  -3   1 147.991 44.4004   1
   3 -16  -1 134.317 38.9091   1
 -16  -3  -1 106.117 33.0615   1
  -3  16   1 116.194 60.8409   1
  -3  16  -1 88.1483 56.2728   1
  -3  16  -3 82.8890 52.8282   1
   3 -16  -3 62.0387 44.6762   1
 -16  -3   3 109.597 54.5747   1
 -16  -3  -3 75.3136 34.9319   1
  -3  16   3 0.38106 66.4647   1
  -3  16  -5-25.1973 47.1290   1
   3 -16  -5 24.6483 54.8115   1
 -16  -3  -5-10.3055 30.3704   1
 -16  -3   5 115.144 56.6551   1
  -3  16   5 106.983 69.7953   1
  -3  16  -7 53.4298 45.5612   1
 -16  -3   7-21.3129 67.2451   1
   3 -16  -7 52.3218 64.6568   1
 -16  -3  -7 1.10624 32.4236   1
  -3  16   7 92.2168 76.6072   1
   3 -16  -9 38.6616 60.4378   1
  -3  16  -9 79.7760 44.7408   1
 -16  -3   9 46.2694 66.7261   1
  -3  16   9 75.6591 81.2652   1
  -4  16   0 109.357 59.2863   1
 -16  -4   0 29.6757 38.2376   1
 -16  -4   2-4.09663 48.0710   1
 -16  -4  -2-38.1881 37.8827   1
  -4  16   2 53.7559 62.2157   1
  -4  16  -2-65.7758 51.7828   1
  -4  16  -4 67.5146 53.2013   1
 -16  -4  -4 147.173 34.2676   1
   4 -16  -4 100.528 48.0888   1
 -16  -4   4 141.338 57.1887   1
  -4  16   4 58.0899 66.9338   1
  -4  16  -6-21.0131 49.4503   1
   4 -16  -6 15.5474 51.9945   1
 -16  -4  -6-5.19338 36.4585   1
  -4  16   6 16.2892 77.2253   1
 -16  -4   6 44.1775 65.8432   1
  -4  16  -8 226.438 50.7132   1
 -16  -4  -8 313.828 46.1893   1
 -16  -4   8 213.913 70.9886   1
   4 -16  -8 314.074 72.2256   1
  -4  16   8 226.797 82.3343   1
 -16  -5   1 26.6665 44.2634   1
 -16  -5  -1 56.9963 38.2721   1
  -5  16   1 13.2958 59.6147   1
  -5  16  -1 4.65531 48.1585   1
 -16  -5  -3 233.890 41.3428   1
 -16  -5   3 203.241 53.3492   1
  -5  16  -3 289.038 60.6164   1
  -5  16   3 119.055 69.8779   1
  -5  16  -5-22.0200 50.8237   1
   5 -16  -5-8.41796 52.8004   1
 -16  -5  -5-42.1820 33.7197   1
 -16  -5   5-52.7830 51.3877   1
  -5  16   5 91.7928 75.1473   1
 -16  -5   7 105.879 69.3271   1
  -5  16  -7 172.540 48.7370   1
 -16  -5  -7 178.042 45.7458   1
  -5  16   7 276.413 83.0789   1
   5 -16  -7 310.762 66.6564   1
   5 -16  -9 18.7149 57.4719   1
 -16  -5  -9 61.6991 48.4813   1
  -5  16  -9-14.1737 43.4192   1
 -16  -5   9 42.7272 65.7275   1
  -5  16   9 177.288 87.8703   1
 -16  -6   0 636.861 55.2150   1
  -6  16   0 798.096 71.7777   1
 -16  -6   2 68.3238 47.7994   1
 -16  -6  -2 8.14602 37.1934   1
  -6  16   2 60.4275 64.4006   1
  -6  16  -2 30.0536 51.1527   1
 -16  -6  -4 300.384 41.4619   1
  -6  16   4 404.706 76.8145   1
 -16  -6   4 357.918 58.4987   1
  -6  16  -4 222.862 48.8496   1
  -6  16  -6-12.8563 43.8281   1
 -16  -6  -6-42.5176 39.0337   1
 -16  -6   6 45.7469 61.3976   1
  -6  16   6-68.7428 73.6796   1
 -16  -6   8 152.070 72.0472   1
  -6  16  -8 41.5121 42.9678   1
   6 -16  -8 85.1720 62.3186   1
 -16  -6  -8 109.906 46.8046   1
  -6  16   8 30.1519 83.0042   1
 -16  -7   1 86.9672 50.8238   1
 -16  -7  -1 57.1582 44.6700   1
  -7  16   1 78.3459 64.8768   1
  -7  16  -1 77.8381 56.0234   1
 -16  -7  -3 536.293 52.9070   1
 -16  -7   3 456.875 59.7056   1
  -7  16   3 334.956 70.4906   1
  -7  16  -3 466.529 56.8458   1
  -7  16  -5 57.5088 46.8475   1
 -16  -7  -5 58.2150 42.8560   1
 -16  -7   5 131.647 61.5330   1
  -7  16   5-6.79934 73.5874   1
  -7  16  -7 148.724 47.3980   1
 -16  -7  -7 188.505 51.0382   1
  -7  16   7 104.504 80.5916   1
 -16  -7   7 120.692 65.3263   1
  -7  16  -9 90.3012 46.2819   1
 -16  -7  -9 183.558 50.0972   1
 -16  -7   9 117.664 68.3517   1
  -7  16   9 92.2840 88.0537   1
  -8  16   0 74.3402 60.1267   1
 -16  -8   0-5.72974 43.0455   1
 -16  -8  -2 258.092 50.2750   1
 -16  -8   2 248.490 58.6119   1
  -8  16   2 397.041 69.5812   1
  -8  16  -2 412.660 57.9032   1
 -16  -8   4-85.5591 57.5743   1
 -16  -8  -4-35.6164 42.9344   1
  -8  16   4 33.5220 65.4843   1
  -8  16  -4 70.3941 44.3606   1
  -8  16  -6 43.9838 46.1637   1
 -16  -8  -6 49.3159 48.5113   1
 -16  -8   6 100.530 61.2139   1
  -8  16   6 144.232 82.6403   1
 -16  -8   8 7.05702 66.7799   1
  -8  16  -8 20.7803 42.9527   1
 -16  -8  -8 84.9067 54.5288   1
  -8  16   8-23.7245 84.2790   1
 -16  -9  -1 74.6134 50.4266   1
  -9  16   1 108.870 59.2576   1
  -9  16  -1 179.229 58.9450   1
 -16  -9   1 41.5347 45.5011   1
 -16  -9   3-1.63395 52.3684   1
 -16  -9  -3 17.2183 46.8423   1
  -9  16   3 127.790 64.0375   1
  -9  16  -3 2.82161 46.9168   1
 -16  -9  -5 171.932 52.5314   1
 -16  -9   5 167.065 63.5981   1
  -9  16   5 38.5420 68.5558   1
  -9  16  -5 169.055 46.5800   1
  -9  16  -7 119.670 42.5774   1
 -16  -9  -7 29.2734 49.9489   1
 -16  -9   7 36.7539 62.1320   1
  -9  16   7 31.5581 79.8074   1
 -10  16   0 22.0161 53.5530   1
 -16 -10   0-24.8462 46.0383   1
 -16 -10   2 66.3257 54.8288   1
 -16 -10  -2 9.23991 46.3659   1
 -10  16   2 79.4289 59.5870   1
 -10  16  -2 24.6628 50.4309   1
 -16 -10   4 45.4596 53.8309   1
 -16 -10  -4-26.1769 48.8873   1
 -10  16   4 53.3885 65.3731   1
 -10  16  -4 0.23775 43.2136   1
 -10  16  -6-24.4042 44.5887   1
 -16 -10  -6 36.5460 51.8195   1
 -16 -10   6-13.5844 60.0528   1
 -10  16   6 0.85151 72.6001   1
 -16 -11  -1 1118.21 73.6214   1
 -16 -11   1 1062.54 73.9842   1
 -11  16   1 1581.68 83.5424   1
 -11  16  -1 1481.20 77.8370   1
 -16 -11  -3 563.175 67.3799   1
 -16 -11   3 489.333 64.7620   1
 -11  16   3 437.155 61.4977   1
 -11  16  -3 553.088 56.5415   1
 -16 -11  -5 1177.74 70.7033   1
 -11  16   5 1395.20 100.454   1
 -16 -11  -7 158.041 58.0351   1
 -16 -11   7 141.600 65.6152   1
 -11  16   7 164.901 80.9860   1
 -16 -12   0 5976.35 131.775   1
 -12  16   0 5522.69 124.865   1
 -16 -12  -2 780.741 68.4189   1
 -16 -12   2 637.866 68.4203   1
 -12  16   2 633.859 65.5715   1
 -12  16  -2 666.080 63.3603   1
 -16 -12  -4 3306.03 108.137   1
 -16 -12   4 3499.42 110.957   1
 -12  16   4 3467.72 121.340   1
 -12  16  -4 3288.64 88.1788   1
 -16 -12  -6 459.202 73.4216   1
 -12  16   6 587.918 88.0184   1
 -16 -12   6 598.209 75.6713   1
 -13  16   1 215.896 55.5178   1
 -16 -13  -1 122.076 58.1221   1
 -13  16  -1 45.0375 49.4614   1
 -16 -13   1 6.66284 55.2636   1
 -16 -13   3 82.8874 55.7041   1
 -16 -13  -3 125.949 55.6678   1
 -13  16   3 132.366 64.6915   1
 -13  16  -3 145.702 53.5240   1
 -16 -13   5-1.08507 64.3345   1
 -16 -13  -5 36.1028 59.5385   1
 -13  16   5-7.67216 72.1303   1
 -16 -14   0 614.155 66.6937   1
 -14  16   0 729.037 58.1139   1
 -16 -14   2 88.0032 61.0858   1
 -14  16   2 372.424 66.5770   1
 -16 -14  -2 113.472 59.3565   1
 -14  16  -2 317.484 57.2932   1
 -16 -14  -4 534.526 70.6511   1
 -16 -14   4 481.901 68.4434   1
 -15  16   1 97.2567 54.5585   1
 -15  16  -1 181.629 51.1636   1
 -16 -15  -1 111.897 56.0770   1
 -16 -15   1 76.1048 58.5082   1
 -14 -17  -1 26.5021 63.0762   1
 -17  14   1-9.18130 50.7296   1
 -14 -17   1-18.3818 62.1782   1
 -17  13   0 72.7825 43.4355   1
 -13 -17   0 147.738 59.2693   1
 -13 -17   2 44.2081 58.3493   1
  13  17  -2 63.4507 58.3974   1
 -17  13   2-16.2717 51.4727   1
 -13 -17  -2 100.105 62.9441   1
 -13 -17   4-10.2840 59.2929   1
  13  17  -4 66.1887 51.9736   1
 -17  13   4-106.332 62.7431   1
 -13 -17  -4-41.3681 62.6852   1
  12  17  -1 7.35946 49.6890   1
 -17  12   1 30.4714 43.1726   1
 -12 -17  -1 16.2477 65.7954   1
 -12 -17   1 83.8711 58.1300   1
 -12 -17   3 5.51223 59.9069   1
  12  17  -3 82.7798 57.9476   1
 -12 -17  -3 34.5806 64.4424   1
 -17  12   3-8.05822 52.4199   1
  12  17  -5 30.4769 51.2436   1
 -12 -17   5 29.1460 59.9916   1
 -12 -17  -5 7.97261 61.9867   1
 -17  12   5-51.5603 66.4495   1
  11  17   0 731.534 67.4700   1
 -17  11   0 678.221 49.1677   1
 -11 -17   0 633.193 75.4533   1
  11  17  -2 733.526 67.8808   1
 -11 -17  -2 954.934 84.0604   1
 -17  11   2 816.669 61.8777   1
 -11 -17   2 918.572 77.1323   1
 -11 -17  -4 743.407 78.7625   1
 -17  11   4 795.079 74.1020   1
 -11 -17   4 725.960 74.7798   1
 -11 -17  -6 370.020 72.0306   1
  11  17  -6 422.465 61.9006   1
 -17  11   6 534.212 80.9227   1
 -11 -17   6 358.561 75.3248   1
 -17  10  -1 704.783 42.7696   1
  10  17  -1 817.887 68.2934   1
 -17  10   1 684.622 53.3950   1
 -10 -17  -1 743.535 73.3523   1
 -10 -17   1 658.713 66.2535   1
  10  17  -3 651.289 67.0229   1
 -17  10   3 450.352 59.0755   1
 -10 -17  -3 735.898 80.4719   1
 -10 -17   3 544.562 69.7760   1
  10  17  -5 532.660 71.0459   1
 -10 -17  -5 472.624 74.9079   1
 -17  10   5 613.665 74.6871   1
 -10 -17   5 387.618 68.1228   1
   9  17   0 278.355 59.6990   1
  -9 -17   0 389.836 72.2340   1
 -17   9   0 360.116 41.1015   1
   9  17   2 209.286 55.2706   1
   9  17  -2 74.6690 53.6275   1
  -9 -17   2 206.333 59.6045   1
  -9 -17  -2 232.152 68.7569   1
 -17   9   2 296.002 54.3113   1
  -9 -17   4 266.357 64.4262   1
   9  17  -4 203.106 59.8881   1
  -9 -17  -4 356.697 71.0983   1
 -17   9   4 204.132 60.9797   1
 -17   9   6 137.352 68.2672   1
   9  17  -6 110.760 65.1739   1
  -9 -17  -6 108.744 65.9969   1
   8  17   1 131.557 58.9364   1
   8  17  -1 27.6253 55.2055   1
 -17   8   1-12.4265 42.3384   1
  -8 -17  -1-26.4858 57.1849   1
  -8 -17   1 106.183 54.5689   1
 -17   8  -1 21.3483 28.2472   1
  -8 -17   3-41.5997 60.9216   1
   8  17   3-71.8387 57.1139   1
   8  17  -3 98.0432 58.8220   1
 -17   8   3 76.6210 49.3272   1
  -8 -17  -3-63.5168 62.9098   1
   8  17  -5-108.720 57.7336   1
  -8 -17   5-20.0272 58.1049   1
 -17   8   5 66.5223 64.9155   1
 -17   8   7-24.2847 68.9686   1
   8  17  -7-114.891 67.7782   1
  -8 -17  -7-30.3655 65.2620   1
  -7 -17   0 1849.28 96.4854   1
 -17   7   0 1986.30 63.4456   1
   7  17   2 90.8294 61.6224   1
   7  17  -2 77.8087 56.5970   1
  -7 -17  -2-88.4987 57.6894   1
  -7 -17   2 22.4899 59.2026   1
 -17   7   2 71.4111 44.9798   1
   7  17  -4 1536.00 84.6633   1
  -7 -17  -4 1700.67 94.9859   1
  -7 -17   4 1144.05 79.7735   1
 -17   7   4 1348.46 80.3446   1
   7  17   4 1422.25 83.7054   1
   7  17  -6-3.20275 58.6036   1
  -7 -17  -6-14.9774 59.8728   1
 -17   7   6-4.67079 65.6852   1
   7  17  -8 264.903 71.0964   1
  -7 -17  -8 231.143 74.9777   1
 -17   7   8 294.080 81.4167   1
 -17   6  -1 1607.34 56.0739   1
  -6 -17  -1 1621.04 91.6208   1
 -17   6   1 1542.36 60.4334   1
  -6 -17   1 1521.17 81.5014   1
   6  17   1 1754.37 89.3226   1
   6  17  -1 1696.03 87.4989   1
  -6 -17  -3 539.004 67.4733   1
 -17   6   3 431.775 50.5560   1
  -6 -17   3 623.797 69.6900   1
   6  17   3 575.099 69.3486   1
   6  17  -3 635.663 68.6874   1
  -6 -17  -5 2278.41 100.435   1
 -17   6   5 2268.15 99.3680   1
   6  17   5 2323.54 103.687   1
   6  17  -7 170.040 67.8058   1
  -6 -17  -7 125.374 69.3983   1
 -17   6   7 35.8240 71.4897   1
   5  17   0-25.4672 57.8360   1
  -5 -17   0-30.4828 53.9968   1
 -17   5   0 72.0982 36.9105   1
   5  17   2-48.5585 53.1802   1
   5  17  -2-44.1499 56.9253   1
 -17   5   2-12.2892 43.9899   1
  -5 -17  -2-47.7853 58.3415   1
  -5 -17   2-17.7724 55.7662   1
   5  17   4-14.9721 63.6078   1
   5  17  -4-8.52601 62.5883   1
  -5 -17   4 29.9095 53.8833   1
  -5 -17  -4-40.0226 55.6432   1
 -17   5   4 50.1205 50.4895   1
   5  17   6 49.0625 63.5271   1
   5  17  -6 142.282 58.7858   1
 -17   5   6 106.987 65.9427   1
  -5 -17  -6 72.6877 67.4995   1
   5  17  -8-104.239 67.8309   1
  -5 -17  -8-54.3479 64.2038   1
 -17   5   8 107.285 75.6321   1
 -17   4   1 451.213 45.0105   1
  -4 -17  -1 561.778 72.1599   1
  -4 -17   1 511.112 60.8349   1
 -17   4  -1 514.715 39.2536   1
   4  17   1 613.564 69.8023   1
   4  17  -1 498.408 70.2205   1
   4  17   3 66.9832 63.4922   1
  -4 -17   3 24.3785 52.9851   1
   4  17  -3 31.9059 61.0359   1
 -17   4   3-6.17288 44.1111   1
  -4 -17  -3 108.255 62.5233   1
  -4 -17  -5 679.386 72.0795   1
   4  17  -5 668.302 72.5603   1
 -17   4   5 547.272 63.0842   1
   4  17   5 755.328 78.8774   1
   4  17  -7 98.2571 59.0975   1
  -4 -17  -7-12.1680 64.7049   1
 -17   4   7-3.92003 67.7501   1
   4  17   7 46.5773 65.1699   1
  -4 -17  -9 14.6996 65.9283   1
   4  17  -9 226.172 68.6147   1
 -17   4   9 201.378 83.3405   1
   3  17   0-32.0701 60.3200   1
 -17   3   0-21.2256 33.2686   1
  -3 -17   0 35.7133 54.0630   1
   3  17   2 43.8423 61.0346   1
   3  17  -2 15.8977 65.7717   1
 -17   3  -2 11.2883 26.8362   1
  -3 -17  -2 104.707 56.6842   1
  -3 -17   2 111.267 53.9173   1
 -17   3   2 18.5493 42.2542   1
   3  17  -4-105.484 58.5070   1
 -17   3   4 37.9094 47.7050   1
  -3 -17  -4 45.8921 58.4537   1
   3  17   4-21.2724 61.8775   1
   3  17  -6 58.5560 59.9656   1
  -3 -17  -6 65.2840 63.4769   1
 -17   3   6 75.2181 58.2420   1
   3  17   6 68.0586 67.6911   1
   3  17  -8-45.1379 55.5614   1
  -3 -17  -8-3.25492 60.2888   1
 -17   3   8-53.3735 74.9903   1
   3  17   8 5.39817 76.8457   1
   2  17   1 223.892 68.7126   1
   2  17  -1 170.426 63.1000   1
  -2 -17  -1 258.250 60.4041   1
 -17   2   1 89.1666 36.3528   1
 -17   2  -1 98.6660 29.4498   1
  -2 -17   1 141.344 47.6673   1
  -2 -17  -3 316.526 63.9352   1
 -17   2   3 308.588 54.7050   1
   2  17  -3 316.964 69.4541   1
   2  17   3 239.086 66.0664   1
   2  17  -5 119.285 57.7393   1
  -2 -17  -5-33.9770 62.1626   1
 -17   2   5-18.7525 57.5733   1
   2  17   5 15.3852 67.3051   1
   2  17  -7 229.012 61.5272   1
  -2 -17  -7 127.481 64.9670   1
   2  17   7 270.725 74.2650   1
 -17   2   7 193.938 62.4478   1
  -2 -17  -9 28.1407 72.3954   1
   2  17  -9 52.4557 58.5914   1
 -17   2   9 43.8089 73.5112   1
  -1 -17   0 1452.77 76.6121   1
 -17   1   0 1516.65 58.1092   1
   1  17   0 1443.14 96.1042   1
  -1 -17  -2 1956.28 86.7908   1
   1  17   2 2131.34 101.919   1
   1  17  -2 1895.36 93.6255   1
 -17   1   2 2150.56 78.8554   1
  -1 -17  -4 1437.67 83.7324   1
 -17   1   4 1342.51 78.5297   1
   1  17   4 1550.77 91.3659   1
 -17   1   6 507.159 69.0414   1
   1  17   6 577.372 78.8851   1
  -1 -17  -6 661.414 76.5675   1
   1  17  -6 563.180 65.2704   1
   1  17  -8 1447.12 81.9983   1
 -17   1   8 940.161 79.3382   1
   1  17   8 1528.14 106.157   1
  -1 -17  -8 778.221 81.3130   1
   0  17  -1-51.1213 63.2908   1
 -17   0  -1 36.8550 31.2796   1
 -17   0   1 20.0102 41.9504   1
   0 -17  -1 56.0595 50.8034   1
   0  17   1-96.5309 70.0864   1
   0  17  -3 87.6280 57.1856   1
   0 -17  -3 66.3255 54.2366   1
 -17   0   3 26.6574 47.9362   1
 -17   0  -3 25.7079 28.6496   1
   0  17   3 30.8646 63.1364   1
 -17   0   5-2.84497 58.6799   1
   0  17  -5-24.1339 56.7084   1
   0 -17  -5 11.5116 58.2831   1
   0  17   5-24.7935 71.2423   1
   0  17  -7 32.0812 55.3313   1
   0 -17  -7-39.2625 58.3487   1
 -17   0   7 140.838 62.2848   1
   0  17   7 5.25957 69.3632   1
 -17   0   9 113.122 75.1443   1
   0 -17  -9-52.4699 70.4867   1
   0  17  -9-3.77280 50.2507   1
   0  17   9 41.3326 69.7143   1
   1 -17   0 437.079 53.3043   1
  -1  17   0 542.416 76.7076   1
   1 -17  -2 346.726 55.8532   1
 -17  -1  -2 248.123 33.3624   1
 -17  -1   2 215.613 48.3966   1
  -1  17  -2 302.355 70.5889   1
  -1  17   2 243.173 69.4472   1
   1 -17  -4 190.012 55.9750   1
 -17  -1  -4 121.298 29.7673   1
 -17  -1   4 173.551 50.0662   1
  -1  17  -4 244.956 59.4776   1
  -1  17   4 191.261 65.1750   1
 -17  -1   6 296.298 70.5543   1
  -1  17   6 296.566 76.9511   1
   1 -17  -6 296.989 69.0037   1
  -1  17  -6 304.489 57.0410   1
  -1  17  -8 23.2031 50.3926   1
   1 -17  -8 109.929 70.5115   1
 -17  -1   8 12.8597 67.6562   1
  -1  17   8 38.4385 76.1503   1
   2 -17  -1 275.042 50.2080   1
 -17  -2  -1 202.034 37.6402   1
 -17  -2   1 206.621 46.6243   1
  -2  17   1 366.298 70.9191   1
  -2  17  -1 231.272 66.7426   1
  -2  17  -3 104.193 64.2475   1
   2 -17  -3 107.087 51.4650   1
 -17  -2  -3 113.407 33.6820   1
 -17  -2   3 206.908 53.5317   1
  -2  17   3 165.944 68.0264   1
  -2  17  -5 96.2224 57.4453   1
   2 -17  -5 82.9435 58.2061   1
 -17  -2  -5 129.992 34.8839   1
 -17  -2   5 47.0015 59.7262   1
  -2  17   5 144.077 73.2784   1
  -2  17  -7 90.2498 52.6960   1
   2 -17  -7 162.193 63.7128   1
 -17  -2   7 148.811 65.3555   1
  -2  17   7-9.01870 82.4990   1
   2 -17  -9 70.3362 75.1236   1
  -2  17  -9-42.7274 49.8965   1
 -17  -2   9-40.9124 69.7087   1
  -2  17   9 46.0838 87.9051   1
 -17  -3   0 91.4559 41.8771   1
  -3  17   0 164.012 63.1822   1
 -17  -3  -2 1857.79 64.3230   1
  -3  17  -2 2004.38 89.3048   1
  -3  17  -4 72.0878 59.4140   1
   3 -17  -4 146.614 53.7493   1
 -17  -3  -4 87.8912 33.7262   1
 -17  -3   4 66.0752 49.6375   1
  -3  17   4 184.922 84.5529   1
 -17  -3  -6 633.086 43.2207   1
 -17  -3   6 740.651 81.6061   1
  -3  17   6 735.633 93.1323   1
   3 -17  -6 860.977 80.5478   1
  -3  17  -6 735.239 65.2063   1
  -3  17  -8 178.898 58.0046   1
   3 -17  -8 136.626 70.2437   1
 -17  -3   8 26.7908 71.2363   1
  -3  17   8 190.080 82.3108   1
 -17  -4   1 70.5911 45.5035   1
 -17  -4  -1 42.5358 36.0365   1
  -4  17   1-78.1981 68.0650   1
  -4  17  -1 36.4554 56.3688   1
 -17  -4  -3 416.225 41.7101   1
  -4  17   3 500.667 77.5509   1
 -17  -4   3 439.048 61.8167   1
  -4  17  -3 343.729 61.5657   1
  -4  17  -5 67.8884 46.9514   1
   4 -17  -5 48.4658 54.8742   1
 -17  -4  -5 113.734 39.1165   1
 -17  -4   5 179.082 63.1205   1
  -4  17   5 102.065 75.6662   1
 -17  -4   7 191.822 73.2376   1
  -4  17  -7 151.106 53.1024   1
   4 -17  -7 109.261 58.9962   1
 -17  -4  -7 168.623 41.7344   1
  -4  17   7 105.984 80.8888   1
   4 -17  -9 253.651 75.6457   1
  -4  17  -9 162.994 52.0775   1
 -17  -4   9 66.8306 65.6780   1
  -4  17   9 276.419 89.1116   1
 -17  -5   0 1649.43 65.2774   1
  -5  17   0 2479.78 102.057   1
 -17  -5   2 176.636 52.4498   1
 -17  -5  -2 207.917 46.0914   1
  -5  17   2 132.471 67.8232   1
  -5  17  -2 182.374 59.5811   1
 -17  -5  -4 1207.03 58.2785   1
  -5  17   4 1177.30 95.7866   1
 -17  -5   4 1045.00 79.2069   1
  -5  17  -4 1203.93 78.0326   1
 -17  -5  -6 214.080 43.8453   1
  -5  17  -6 144.753 52.3041   1
 -17  -5   6 4.66373 56.6420   1
  -5  17   6 218.729 83.8425   1
   5 -17  -8 212.265 70.5378   1
 -17  -5   8 83.0132 68.8790   1
 -17  -5  -8 180.647 47.6831   1
  -5  17   8 408.212 93.5150   1
  -5  17  -8 300.223 52.9019   1
 -17  -6  -1 447.466 47.6606   1
 -17  -6   1 345.505 55.6140   1
  -6  17   1 584.138 75.0276   1
  -6  17  -1 553.461 66.4462   1
 -17  -6  -3 667.758 51.3483   1
 -17  -6   3 703.944 66.6550   1
  -6  17   3 734.009 88.8130   1
  -6  17  -3 757.831 65.2773   1
  -6  17  -5 143.597 55.2379   1
 -17  -6  -5 181.239 46.4681   1
 -17  -6   5 71.9664 60.0367   1
 -17  -6   7 534.224 78.5793   1
  -6  17  -7 460.433 55.0235   1
 -17  -6  -7 602.791 53.8503   1
  -7  17   0 101.606 64.2510   1
 -17  -7   0 52.7004 49.4541   1
 -17  -7  -2 587.611 56.8972   1
 -17  -7   2 524.720 62.0961   1
  -7  17   2 713.633 83.5847   1
  -7  17  -2 661.293 64.6331   1
 -17  -7   4 47.2737 59.3227   1
 -17  -7  -4 52.2837 44.8287   1
  -7  17   4-40.0710 72.8653   1
  -7  17  -4 11.2972 51.8376   1
  -7  17  -6 135.089 47.5686   1
 -17  -7  -6 112.326 42.1844   1
 -17  -7   6 111.837 65.4558   1
  -7  17   6 203.249 82.9826   1
 -17  -7   8 94.0334 74.2845   1
  -7  17  -8 23.4770 43.0332   1
 -17  -7  -8 19.9598 49.2477   1
  -7  17   8 122.352 90.7282   1
 -17  -8   1 79.4423 54.8764   1
 -17  -8  -1 99.7758 46.5919   1
  -8  17   1 125.010 67.1436   1
  -8  17  -1 84.4728 59.8566   1
 -17  -8  -3 425.965 54.4650   1
 -17  -8   3 316.733 59.6753   1
  -8  17   3 370.994 76.5529   1
  -8  17  -5-24.3275 47.1068   1
 -17  -8  -5-56.1188 44.8599   1
 -17  -8   5 15.6330 63.3380   1
  -8  17   5 35.6818 78.9174   1
 -17  -8  -7 342.647 55.1890   1
  -8  17   7 235.344 90.5695   1
  -8  17  -7 285.617 52.1149   1
 -17  -9   0 1717.50 78.1944   1
  -9  17   0 1039.40 83.0302   1
 -17  -9  -2 745.269 65.4030   1
 -17  -9   2 925.960 72.3793   1
  -9  17   2 1035.46 84.4943   1
  -9  17  -2 885.397 68.3301   1
 -17  -9  -4 741.844 61.7561   1
  -9  17   4 911.766 90.3314   1
 -17  -9   4 896.045 76.1404   1
  -9  17  -4 955.361 63.6295   1
 -17  -9  -6 413.173 59.7996   1
  -9  17   6 368.073 82.9724   1
  -9  17  -6 517.296 57.3228   1
 -17  -9   6 404.191 64.5379   1
 -17 -10   1 53.5158 54.3978   1
 -17 -10  -1-2.10477 46.5443   1
 -10  17   1 13.3656 60.6763   1
 -10  17  -1-30.7325 57.8455   1
 -17 -10   3 88.9341 54.7926   1
 -17 -10  -3 76.9814 50.9985   1
 -10  17   3 39.2029 64.1474   1
 -10  17  -3 88.9581 49.6098   1
 -17 -10   5 8.78043 60.7472   1
 -17 -10  -5 12.2284 49.7645   1
 -10  17   5 99.6688 75.9839   1
 -10  17  -5 90.4358 47.9846   1
 -11  17   0 5.65123 59.7640   1
 -17 -11   0 39.5081 49.6430   1
 -17 -11   2-35.3849 56.0279   1
 -17 -11  -2 35.6743 54.3424   1
 -11  17   2 70.4236 62.4191   1
 -11  17  -2-5.41250 52.3274   1
 -17 -11   4 140.833 60.8903   1
 -17 -11  -4 31.4562 50.8096   1
 -11  17   4-128.270 71.9141   1
 -11  17  -4-32.0487 46.3275   1
 -17 -11  -6 66.1574 58.3142   1
 -17 -11   6 108.342 65.7520   1
 -11  17   6 69.3158 74.5689   1
 -17 -12  -1 847.276 66.8636   1
 -17 -12   1 913.380 69.8454   1
 -12  17   1 907.524 74.6013   1
 -12  17  -1 1021.95 75.5135   1
 -17 -12  -3 407.306 59.6380   1
 -17 -12   3 498.330 68.6113   1
 -12  17   3 654.704 74.5574   1
 -12  17  -3 765.081 63.5351   1
 -17 -12  -5 580.527 69.3105   1
 -12  17   5 517.155 78.9542   1
 -17 -12   5 360.869 68.5330   1
 -17 -13   0 604.694 66.2167   1
 -13  17   0 743.339 71.5846   1
 -17 -13   2 389.993 64.3904   1
 -13  17  -2 322.597 62.2242   1
 -13  17   2 231.336 65.4274   1
 -17 -13  -4 675.482 77.1926   1
 -17 -13   4 421.548 64.2297   1
 -13  17   4 646.998 76.1483   1
 -17 -14  -1 1502.18 82.3896   1
 -17 -14   1 1555.99 84.4508   1
 -14  17   1 1770.60 85.8921   1
 -14  17  -1 1761.61 88.7151   1
 -18  13   1 56.6036 47.3275   1
 -13 -18  -1-44.0953 67.8387   1
 -13 -18   1 135.773 65.3224   1
 -18  12   0 182.780 41.3457   1
 -12 -18   0 127.979 61.1886   1
 -12 -18   2-37.9125 59.8814   1
  12  18  -2 87.6294 58.9563   1
 -18  12   2 144.406 50.5609   1
 -12 -18  -2-30.7115 60.1018   1
 -18  11   1 23.3444 40.9518   1
  11  18   1-25.9392 54.9965   1
  11  18  -1 61.5325 51.9812   1
 -11 -18  -1 10.3353 67.5621   1
 -11 -18   1 89.8704 52.9993   1
 -11 -18   3 54.4909 61.4480   1
  11  18  -3 7.07987 56.9064   1
 -18  11   3 104.298 54.3242   1
 -11 -18  -3-36.9116 67.5757   1
  10  18   0 16.4478 55.2955   1
 -18  10   0 68.9232 37.1399   1
 -10 -18   0-17.1502 62.7664   1
  10  18   2-69.5325 55.9882   1
  10  18  -2 36.9305 54.1593   1
 -10 -18  -2-21.0738 63.6426   1
 -18  10   2 116.910 49.5610   1
 -10 -18   2 7.94169 58.2322   1
 -18  10   4-23.5146 52.1254   1
 -10 -18   4-78.5463 60.8045   1
  10  18  -4 36.7370 58.2469   1
 -10 -18  -4-53.4901 67.2278   1
   9  18  -1 3514.49 115.508   1
 -18   9   1 3618.61 89.9859   1
   9  18  -3 4266.88 119.527   1
  -9 -18  -3 4308.73 135.741   1
  -9 -18   3 3594.79 121.919   1
 -18   9   3 4133.21 111.123   1
   9  18   3 3733.74 118.753   1
   9  18  -5 2111.50 104.111   1
  -9 -18  -5 1798.00 109.919   1
 -18   9   5 2043.47 99.7518   1
  -9 -18   5 1738.99 94.4569   1
  -8 -18   0 1065.58 83.6190   1
 -18   8   0 1106.61 55.8776   1
   8  18   0 1184.09 76.7003   1
   8  18  -2 395.556 67.1709   1
  -8 -18  -2 382.900 74.9354   1
  -8 -18   2 344.178 65.5888   1
 -18   8   2 411.667 57.9134   1
   8  18   2 396.316 66.1508   1
   8  18  -4 844.330 73.0251   1
  -8 -18  -4 1072.38 83.0122   1
  -8 -18   4 918.777 79.0795   1
 -18   8   4 941.665 78.6999   1
   8  18   4 1171.50 84.3827   1
   8  18  -6 86.9920 67.4830   1
  -8 -18  -6 227.363 70.3232   1
 -18   8   6 184.022 68.7535   1
   7  18   1 84.1721 61.4598   1
   7  18  -1-4.75230 54.4921   1
 -18   7  -1 5.23881 30.8792   1
  -7 -18  -1-61.9127 57.1378   1
 -18   7   1-48.1703 40.2443   1
  -7 -18   1 78.6197 55.7504   1
  -7 -18   3 96.2840 61.3390   1
   7  18   3 59.9627 63.4203   1
   7  18  -3 136.557 63.2536   1
 -18   7   3-17.8362 58.9280   1
  -7 -18  -3 70.3085 63.9620   1
   7  18   5 48.7692 59.5141   1
   7  18  -5 28.9469 61.4304   1
  -7 -18  -5-63.2728 63.2944   1
 -18   7   5 111.638 62.0507   1
   7  18  -7 54.0481 67.9385   1
  -7 -18  -7 122.342 68.6547   1
 -18   7   7 35.6917 71.3298   1
   6  18   0 2.69485 59.6184   1
 -18   6   0 158.077 39.9363   1
  -6 -18   0 180.378 66.9543   1
 -18   6   2 603.241 55.3421   1
  -6 -18   2 464.199 67.7867   1
  -6 -18  -2 384.445 64.8088   1
   6  18   2 562.051 74.5866   1
   6  18  -2 579.286 68.2700   1
   6  18   4 163.054 59.7270   1
 -18   6   4 79.5982 57.8847   1
  -6 -18  -4 189.993 71.8022   1
   6  18  -6 341.576 70.4974   1
  -6 -18  -6 271.533 68.9497   1
 -18   6   6 191.121 68.4942   1
   5  18   1-51.3007 60.7301   1
   5  18  -1 5.82475 62.5115   1
 -18   5   1 2.08463 41.0677   1
  -5 -18  -1 50.1234 57.9658   1
  -5 -18   1-86.4378 55.8514   1
 -18   5  -1-23.5716 32.5598   1
   5  18   3 182.909 65.7638   1
   5  18  -3 274.089 64.5601   1
  -5 -18  -3 143.573 60.4359   1
  -5 -18   3 227.288 61.9334   1
 -18   5   3 64.3956 48.1212   1
 -18   5   5-85.9351 60.7911   1
   5  18   5 71.1299 70.9173   1
   5  18  -5-11.9303 62.6935   1
  -5 -18  -5 107.907 65.7705   1
   5  18  -7 41.6720 58.6656   1
  -5 -18  -7 103.542 66.7580   1
 -18   5   7 160.688 72.9852   1
 -18   4   0 498.268 45.6751   1
   4  18   0 352.113 65.8746   1
  -4 -18   0 264.710 64.1580   1
 -18   4   2 2300.14 83.5414   1
  -4 -18   2 2280.35 94.7591   1
   4  18   2 2049.70 105.636   1
   4  18   4 155.200 70.3682   1
   4  18  -4 147.423 63.8809   1
  -4 -18  -4 161.549 63.7924   1
 -18   4   4 205.231 52.8471   1
   4  18  -6 486.157 70.5227   1
 -18   4   6 500.166 74.1444   1
   4  18   6 467.498 81.3112   1
  -4 -18  -6 517.389 74.8004   1
   4  18  -8 89.4206 65.3783   1
  -4 -18  -8 50.2669 71.1112   1
 -18   4   8 82.0619 71.7854   1
   3  18   1 2.31183 68.3177   1
   3  18  -1-76.9752 62.5747   1
 -18   3  -1 11.5240 30.1416   1
  -3 -18  -1 28.4145 58.9985   1
 -18   3   1-62.4092 36.1622   1
  -3 -18   1 91.5364 52.2170   1
   3  18   3-6.20584 69.9929   1
   3  18  -3-48.5218 62.4195   1
 -18   3   3 66.9938 53.4722   1
  -3 -18  -3 11.8055 59.5677   1
   3  18  -5-25.9735 58.8747   1
  -3 -18  -5-27.3415 59.7324   1
 -18   3   5 102.464 56.2541   1
   3  18   5 72.4718 68.5953   1
 -18   3   7-32.4314 69.3329   1
   3  18  -7-3.41711 57.3212   1
  -3 -18  -7 54.3809 67.3481   1
   2  18   0 150.961 68.5553   1
 -18   2   0 98.1431 38.1536   1
  -2 -18   0 8.44393 53.8468   1
   2  18   2 91.8867 68.1373   1
   2  18  -2 63.9769 61.4867   1
 -18   2  -2 69.4101 28.5473   1
  -2 -18  -2 165.282 60.3840   1
 -18   2   2 30.3577 39.3654   1
   2  18  -4 104.956 60.5611   1
 -18   2   4 122.046 52.7200   1
  -2 -18  -4 105.610 58.2409   1
   2  18   4 181.490 71.3862   1
   2  18  -6-16.5330 66.2189   1
  -2 -18  -6 86.5493 68.3205   1
 -18   2   6 81.5894 60.8335   1
   2  18   6-93.4731 79.3184   1
 -18   2   8 197.963 78.6933   1
   2  18  -8 62.8116 57.2345   1
  -2 -18  -8 113.330 67.5137   1
   2  18   8 71.2513 74.4474   1
   1  18   1 53.7342 64.6042   1
   1  18  -1-18.7985 66.9172   1
 -18   1  -1-11.6727 33.2779   1
 -18   1   1-45.5280 39.9958   1
  -1 -18  -1-97.5682 58.5356   1
   1  18  -3-35.4428 66.0103   1
  -1 -18  -3 12.1719 59.4050   1
 -18   1   3 47.6893 48.3878   1
   1  18   3-30.9468 72.8785   1
   1  18  -5-87.5643 57.7610   1
 -18   1   5-39.7518 58.0889   1
  -1 -18  -5 78.5139 61.8102   1
   1  18   5 3.17412 68.1708   1
   1  18  -7-33.6127 58.2015   1
  -1 -18  -7-7.43329 67.8477   1
 -18   1   7-2.47702 62.1841   1
   1  18   7 109.467 75.4952   1
   0  18   0 145.873 67.5707   1
 -18   0   0 35.8851 34.1576   1
 -18   0  -2 492.672 37.0193   1
   0  18  -2 658.155 77.9114   1
 -18   0   2 570.522 56.5638   1
   0  18  -4 43.3787 63.4225   1
   0 -18  -4-42.2897 51.9192   1
 -18   0   4 90.8360 55.0685   1
   0  18   4 48.2764 67.9549   1
   0  18  -6 231.349 59.3256   1
 -18   0   6 278.908 64.4120   1
   0  18   6 410.173 87.3224   1
   0 -18  -6 301.426 72.2593   1
   0  18  -8-38.4329 53.0015   1
   0 -18  -8 25.8045 62.3034   1
 -18   0   8 60.9925 66.8390   1
   0  18   8-12.6892 82.6564   1
 -18  -1  -1 481.304 43.2708   1
 -18  -1   1 540.907 50.5613   1
  -1  18   1 576.036 81.5892   1
  -1  18  -1 598.087 76.5344   1
   1 -18  -3 437.848 65.6682   1
 -18  -1  -3 359.496 35.6162   1
  -1  18   3 418.288 78.8467   1
  -1  18  -3 430.821 70.5383   1
 -18  -1   3 462.517 59.4311   1
 -18  -1   5 113.520 60.5446   1
  -1  18  -5 163.099 62.5935   1
   1 -18  -5 183.913 62.0482   1
  -1  18   5 152.568 74.4354   1
  -1  18  -7 37.3454 53.3804   1
   1 -18  -7 129.349 70.6651   1
 -18  -1   7 139.073 66.8549   1
  -1  18   7 151.112 73.4720   1
 -18  -2   0 80.6122 41.5708   1
  -2  18   0 153.046 72.5412   1
  -2  18  -2 277.580 70.6008   1
 -18  -2   2 148.339 45.7189   1
  -2  18   2 337.154 83.4089   1
 -18  -2  -2 196.648 33.4103   1
  -2  18  -4 47.5762 55.9826   1
 -18  -2  -4 166.882 34.2433   1
   2 -18  -4 193.816 57.2636   1
 -18  -2   4 152.117 55.1601   1
  -2  18   4 268.042 70.8293   1
 -18  -2   6 109.120 69.8947   1
  -2  18  -6 91.9842 53.7865   1
   2 -18  -6 43.3277 65.7017   1
  -2  18   6-51.4752 75.9919   1
  -2  18  -8 113.559 54.6696   1
   2 -18  -8 213.154 66.0341   1
 -18  -2   8 165.132 65.3285   1
  -2  18   8 148.511 83.2481   1
 -18  -3   1 25.9210 43.5921   1
  -3  18   1 35.6071 72.9350   1
  -3  18  -1-36.1176 75.1745   1
 -18  -3  -1-7.26325 38.1966   1
  -3  18  -3 71.3601 65.2466   1
 -18  -3   3 36.9108 54.1283   1
 -18  -3  -3 73.8497 37.6790   1
  -3  18  -5 192.418 61.8156   1
   3 -18  -5 95.1091 60.2178   1
 -18  -3  -5 151.487 36.8438   1
 -18  -3   5-56.4463 54.4184   1
  -3  18   5 27.2813 72.6331   1
  -3  18  -7 118.678 51.6088   1
 -18  -3   7 63.2886 71.8726   1
   3 -18  -7 125.062 65.5809   1
  -3  18   7 20.1226 80.8149   1
 -18  -4   0 29.4756 44.8419   1
  -4  18   0 14.5531 71.1753   1
 -18  -4   2 57.1802 47.7151   1
 -18  -4  -2 21.9506 37.1449   1
  -4  18   2 127.217 74.1814   1
  -4  18  -2-7.44522 64.5158   1
  -4  18  -4-5.60232 61.4674   1
 -18  -4   4-105.527 59.7233   1
 -18  -4  -4-23.5037 41.0184   1
  -4  18   4 33.3043 77.7715   1
  -4  18  -6 26.9240 57.0425   1
 -18  -4  -6-6.70412 35.2836   1
  -4  18   6-39.7256 78.7155   1
 -18  -4   6 123.272 67.1941   1
  -4  18  -8-76.1939 52.4467   1
   4 -18  -8 98.2252 64.1623   1
 -18  -4   8 63.3290 73.3018   1
  -4  18   8 114.212 87.4865   1
 -18  -5  -1 226.300 44.8074   1
 -18  -5   1 285.207 52.0215   1
  -5  18   1 444.665 81.0626   1
  -5  18  -1 324.889 69.2925   1
 -18  -5   3 42.4122 57.1512   1
 -18  -5  -3 59.0552 39.4024   1
  -5  18   3 33.2928 73.1819   1
  -5  18  -3 45.6579 56.0663   1
 -18  -5  -5 523.069 50.2285   1
  -5  18   5 529.344 88.7742   1
  -5  18  -5 565.984 65.3286   1
 -18  -5   5 381.307 71.0658   1
 -18  -5   7 62.8011 70.6555   1
  -5  18  -7-4.38458 49.3104   1
 -18  -5  -7 7.09663 40.0932   1
  -5  18   7 27.2625 86.2236   1
 -18  -6   0 20919.9 210.117   1
  -6  18   0 18670.5 242.543   1
 -18  -6  -2 3156.36 89.4167   1
 -18  -6   2 3217.25 99.8371   1
  -6  18   2 3794.83 132.364   1
  -6  18  -2 3896.29 117.688   1
 -18  -6  -4 10740.1 151.764   1
  -6  18   4 10950.2 217.549   1
 -18  -6   4 10518.0 183.309   1
 -18  -6  -6 2920.00 93.0124   1
  -6  18  -6 2720.06 91.9087   1
 -18  -7   1 222.495 56.1629   1
 -18  -7  -1 223.745 48.2091   1
  -7  18   1 371.484 76.9245   1
  -7  18  -1 360.843 65.4393   1
 -18  -7  -3 294.819 48.4931   1
 -18  -7   3 313.279 60.0247   1
  -7  18  -3 230.269 59.7263   1
  -7  18   3 327.930 81.5499   1
  -7  18  -5 184.584 59.6459   1
 -18  -7  -5 315.894 52.2228   1
  -7  18   5 214.204 91.4094   1
 -18  -7  -7 23.4557 43.1423   1
  -7  18   7 174.218 90.3887   1
 -18  -7   7 68.8651 70.5667   1
  -7  18  -7 284.279 55.6715   1
  -8  18   0 230.883 67.6710   1
 -18  -8   0 220.866 54.0450   1
 -18  -8   2 29.5190 52.0923   1
 -18  -8  -2-2.07510 47.5234   1
  -8  18   2 95.2243 75.1305   1
  -8  18  -2 53.0750 54.1401   1
 -18  -8  -4 169.374 51.6971   1
  -8  18   4 294.126 83.1583   1
  -8  18  -4 184.875 57.4985   1
  -8  18  -6 20.1463 50.2294   1
 -18  -8   6 37.3829 67.2547   1
  -8  18   6-38.8470 86.7306   1
 -18  -9   1 194.754 57.1388   1
 -18  -9  -1 205.838 49.2204   1
  -9  18   1 367.494 79.2823   1
  -9  18  -1 405.463 71.4773   1
 -18  -9   3 189.958 56.6712   1
 -18  -9  -3 71.5356 48.1283   1
  -9  18   3 202.831 77.0969   1
  -9  18  -3 134.170 58.7178   1
 -18  -9  -5 292.835 57.5772   1
  -9  18   5 276.252 85.9295   1
 -18  -9   5 231.141 73.6533   1
  -9  18  -5 226.510 53.5809   1
 -18 -10   0 210.449 55.9511   1
 -10  18   0 271.681 70.3363   1
 -18 -10   2 217.348 58.6970   1
 -18 -10  -2 405.423 59.6880   1
 -10  18   2 488.962 79.7394   1
 -10  18  -2 248.260 61.7983   1
 -18 -10   4-61.4985 58.6618   1
 -18 -10  -4 11.9737 55.7146   1
 -10  18   4 122.576 78.1917   1
 -10  18  -4 149.098 51.7674   1
 -18 -11   1 1111.51 81.2096   1
 -11  18   1 949.144 86.0563   1
 -11  18  -1 951.242 79.2946   1
 -18 -11  -3 502.388 63.0903   1
 -18 -11   3 561.691 70.2073   1
 -11  18   3 464.555 81.7347   1
 -11  18  -3 514.051 64.2312   1
 -12  18   0 83.9498 64.3182   1
 -18 -12   0 140.452 62.2403   1
 -18 -12   2 73.0787 59.0870   1
 -18 -12  -2-36.2407 55.9173   1
 -12  18   2 57.1071 69.4375   1
 -12  18  -2 55.2330 57.6194   1
 -18 -13   1 137.794 59.1973   1
 -18 -13  -1 182.142 55.1220   1
 -13  18   1 115.928 68.9062   1
 -13  18  -1 195.563 70.8474   1
  11  19   0 137.610 61.5632   1
 -11 -19   0 73.2410 63.7814   1
 -11 -19   2 111.511 62.5676   1
 -19  11   2 100.243 48.5732   1
  11  19  -2 77.6634 59.0851   1
 -11 -19  -2 229.297 68.9713   1
  10  19   1 202.889 70.1223   1
  10  19  -1 226.955 64.7945   1
 -10 -19  -1 59.3593 66.5262   1
 -19  10   1 58.5106 42.0667   1
 -10 -19   1 57.6199 58.3745   1
 -10 -19   3 28.1040 62.9334   1
  10  19  -3 44.6557 60.4631   1
 -10 -19  -3 79.8415 68.7980   1
 -19  10   3 127.854 56.7580   1
  -9 -19   0 372.130 69.7491   1
 -19   9   0 389.276 44.1675   1
   9  19   0 455.252 71.5491   1
   9  19   2 131.544 59.1034   1
   9  19  -2 200.596 66.5120   1
  -9 -19   2 228.538 65.4860   1
  -9 -19  -2 128.547 65.5029   1
 -19   9   2 307.558 57.4457   1
  -9 -19  -4 307.597 75.9997   1
   9  19  -4 196.947 65.9862   1
  -9 -19   4 218.710 66.2235   1
 -19   9   4 159.374 63.6412   1
   8  19   1 33.7062 59.0175   1
   8  19  -1 135.953 64.1908   1
 -19   8   1 62.0051 45.4043   1
  -8 -19  -1 196.176 68.3835   1
  -8 -19   3 96.4742 63.9324   1
   8  19   3 99.1823 63.2492   1
   8  19  -3 71.7293 61.3196   1
 -19   8   3 181.918 57.9799   1
  -8 -19  -3 38.0499 65.0076   1
   8  19  -5 44.3910 64.4530   1
  -8 -19  -5-10.7464 71.3894   1
 -19   8   5 7.32065 62.8464   1
  -7 -19   0 410.078 73.1036   1
 -19   7   0 511.121 46.3421   1
   7  19   0 557.703 73.3713   1
  -7 -19  -2 1003.78 92.9275   1
  -7 -19   2 768.286 75.4487   1
 -19   7   2 867.016 61.7936   1
   7  19   2 1120.51 85.8467   1
   7  19  -2 827.493 79.3834   1
  -7 -19  -4 485.034 74.5498   1
 -19   7   4 632.223 73.8930   1
   7  19   4 665.346 85.0906   1
   7  19  -6 241.089 68.9484   1
  -7 -19  -6 204.871 66.5850   1
 -19   7   6 420.628 79.3553   1
   6  19   1 112.674 68.2680   1
   6  19  -1 104.571 65.2466   1
 -19   6   1 26.6781 39.0468   1
  -6 -19  -1 90.3002 63.6859   1
  -6 -19   1 56.9349 55.6057   1
   6  19   3 24.6169 64.0267   1
   6  19  -3-17.2990 67.0134   1
  -6 -19  -3 105.688 68.3424   1
 -19   6   3 67.0925 46.6826   1
   6  19   5 76.9403 67.9866   1
   6  19  -5-15.7912 64.5268   1
  -6 -19  -5 104.539 67.4171   1
 -19   6   5 215.189 69.4951   1
   5  19   0 240.738 70.4060   1
 -19   5   0 258.858 45.2080   1
  -5 -19   0 295.776 69.9490   1
   5  19   2 110.556 62.9180   1
   5  19  -2 35.8191 66.3139   1
 -19   5   2 230.519 52.4083   1
  -5 -19  -2 130.536 65.8166   1
  -5 -19   2 176.195 59.9397   1
   5  19   4 115.686 71.5186   1
   5  19  -4 195.286 74.0278   1
  -5 -19  -4 137.624 68.7188   1
 -19   5   4 144.760 57.0960   1
   5  19  -6 98.2883 64.6313   1
 -19   5   6 95.3586 70.3497   1
  -5 -19  -6 118.576 67.8485   1
   5  19   6 333.559 85.4243   1
 -19   4   1 2.93586 44.2393   1
   4  19   1 159.256 68.2158   1
   4  19  -1-32.0716 69.2131   1
  -4 -19  -1-28.1000 57.0613   1
 -19   4  -1-11.2374 34.3381   1
  -4 -19   1 11.0869 53.1493   1
   4  19   3-46.1090 72.9117   1
   4  19  -3-42.1592 65.4014   1
 -19   4   3 28.4310 52.7629   1
  -4 -19  -3 6.12213 62.7846   1
   4  19   5 124.150 77.6716   1
   4  19  -5-106.794 74.1744   1
  -4 -19  -5 56.9587 62.3248   1
 -19   4   5-15.1811 54.2183   1
   4  19   7 101.683 80.9419   1
   4  19  -7-128.445 68.0220   1
 -19   4   7 90.8434 70.8450   1
  -4 -19  -7 115.679 68.7240   1
   3  19   0 110.779 62.5512   1
  -3 -19   0 179.850 64.4022   1
 -19   3   0 224.964 43.8573   1
 -19   3   2 857.938 62.0627   1
  -3 -19  -2 839.582 72.6825   1
   3  19   2 1184.65 98.0492   1
   3  19  -2 1057.10 92.9653   1
   3  19   4 83.0270 78.4804   1
   3  19  -4 71.7697 62.6509   1
 -19   3   4 146.414 55.0972   1
  -3 -19  -4-2.54394 71.1413   1
  -3 -19  -6 364.062 73.2303   1
   3  19  -6 345.369 74.0667   1
 -19   3   6 146.502 63.3924   1
   3  19   6 359.240 82.5289   1
   2  19   1 390.601 81.1488   1
  -2 -19  -1 407.951 63.4869   1
 -19   2  -1 287.052 40.5497   1
   2  19  -1 411.578 74.8666   1
 -19   2   1 278.306 46.4359   1
   2  19   3 10.1939 70.9816   1
 -19   2   3 94.9090 55.3492   1
   2  19  -3-18.6754 69.4940   1
  -2 -19  -3 107.141 61.7215   1
  -2 -19  -5 661.970 79.7739   1
 -19   2   5 646.223 72.3326   1
   2  19   5 762.533 92.7599   1
   2  19  -5 855.587 79.2066   1
   2  19  -7 60.9374 62.3574   1
  -2 -19  -7-42.1849 71.1348   1
 -19   2   7-76.2741 58.4889   1
   2  19   7 20.5395 87.4817   1
 -19   1   0 312.442 39.7058   1
   1  19   0 511.207 85.1668   1
   1  19  -2 106.392 70.6197   1
  -1 -19  -2 157.562 58.4582   1
 -19   1  -2 188.122 32.8385   1
 -19   1   2 178.107 50.3796   1
   1  19   2 196.533 73.6842   1
  -1 -19  -4 364.015 65.1932   1
   1  19  -4 241.840 69.6628   1
 -19   1   4 230.023 62.0358   1
   1  19   4 314.596 87.3835   1
   1  19  -6 154.245 63.6722   1
  -1 -19  -6 144.490 67.5702   1
 -19   1   6 100.630 59.1610   1
   1  19   6 41.9260 76.2616   1
   0  19  -1 132.530 74.0628   1
 -19   0  -1 124.343 35.8848   1
 -19   0   1 140.633 42.5494   1
   0  19  -3 16.0553 63.8365   1
   0 -19  -3 23.4792 54.5124   1
 -19   0   3 7.53001 44.5333   1
 -19   0  -3 58.4598 30.5409   1
   0  19   3 198.179 79.8604   1
   0  19  -5 270.387 63.6812   1
 -19   0   5 326.788 65.3743   1
   0 -19  -5 263.814 66.5637   1
   0  19   5 224.922 81.5944   1
   0  19  -7-71.3107 67.2019   1
   0 -19  -7-23.4002 68.7649   1
 -19   0   7 64.9201 61.0132   1
   0  19   7 49.2473 79.4658   1
 -19  -1   0 61.9152 38.3939   1
  -1  19   0 262.806 73.9873   1
 -19  -1  -2 82.4537 32.3665   1
  -1  19  -2 46.6123 71.7022   1
 -19  -1   2-60.9351 47.2951   1
  -1  19   2-115.513 75.5227   1
   1 -19  -4 270.145 64.1193   1
  -1  19  -4 51.7821 67.5091   1
 -19  -1   4 139.338 51.5617   1
  -1  19   4 223.301 78.2822   1
  -1  19  -6 68.5553 54.4621   1
 -19  -1   6 65.2624 63.4808   1
   1 -19  -6 17.6305 64.7860   1
  -1  19   6-33.1488 82.7871   1
 -19  -2  -1 91.8704 38.4607   1
 -19  -2   1 79.5362 42.9741   1
  -2  19  -1 174.430 72.6798   1
  -2  19  -3 208.590 73.9288   1
 -19  -2  -3 214.829 34.7672   1
 -19  -2   3 294.783 55.7282   1
  -2  19   3 242.750 84.7549   1
  -2  19  -5 66.7487 64.8175   1
   2 -19  -5 13.3516 57.9500   1
 -19  -2   5-12.7852 58.1855   1
  -2  19   5 45.0821 74.2327   1
  -2  19  -7 165.012 57.2822   1
   2 -19  -7 37.2240 68.7668   1
 -19  -2   7 161.872 68.3774   1
  -2  19   7 90.9572 84.5807   1
 -19  -3   0 1823.04 71.8613   1
  -3  19   0 730.357 85.0943   1
 -19  -3  -2 1058.20 52.7437   1
 -19  -3   2 1166.37 72.6363   1
  -3  19   2 1169.69 102.607   1
  -3  19  -2 1090.52 89.8905   1
 -19  -3  -4 880.830 48.5786   1
  -3  19   4 940.135 93.5083   1
  -3  19  -4 809.536 78.4618   1
 -19  -3   4 731.050 74.7324   1
 -19  -3   6 514.571 78.9406   1
  -3  19   6 474.769 90.6456   1
  -3  19  -6 429.545 64.4588   1
 -19  -4   1 66.4180 45.6124   1
  -4  19   1 0.94687 78.0230   1
  -4  19  -1-48.8483 71.2604   1
 -19  -4  -1 1.63044 38.5607   1
  -4  19  -3 157.877 69.2237   1
 -19  -4   3 98.1483 54.6112   1
 -19  -4  -3 0.90537 39.5669   1
  -4  19   3 24.8785 78.3448   1
  -4  19  -5 73.9880 57.5390   1
 -19  -4  -5 16.3216 37.6272   1
 -19  -4   5 97.1417 62.6303   1
  -4  19   5 70.9396 81.7780   1
 -19  -4   7 15.3774 70.9562   1
  -4  19  -7 2.42547 54.6672   1
  -4  19   7 52.2404 91.8344   1
 -19  -5   0 104.151 48.1662   1
  -5  19   0 207.062 79.7343   1
 -19  -5   2 205.627 53.6042   1
 -19  -5  -2 110.837 41.1765   1
  -5  19   2 120.060 79.5494   1
  -5  19  -2 178.827 72.1128   1
  -5  19  -4 166.401 68.3375   1
 -19  -5   4 93.5501 59.4305   1
 -19  -5  -4 72.0928 38.6868   1
  -5  19   4 59.2807 81.9874   1
 -19  -5   6 189.443 69.7337   1
  -5  19  -6 102.702 57.5212   1
 -19  -5  -6 207.148 43.1379   1
  -5  19   6 173.476 88.6684   1
 -19  -6   1 11.9858 50.5168   1
  -6  19   1-73.2486 74.7935   1
 -19  -6  -1 48.5516 50.4376   1
  -6  19  -1-62.7801 67.4907   1
 -19  -6   3 57.7490 59.7422   1
 -19  -6  -3 45.6145 46.3094   1
  -6  19   3 182.345 81.6492   1
  -6  19  -5 58.5966 59.4043   1
 -19  -6  -5 8.40149 42.4214   1
 -19  -6   5-8.64876 65.0357   1
  -6  19   5 49.4505 82.9913   1
 -19  -7   0 1350.38 75.9393   1
  -7  19   0 1794.70 102.276   1
 -19  -7   2 133.396 56.0798   1
 -19  -7  -2 86.2238 43.3668   1
  -7  19   2 118.179 73.9161   1
  -7  19  -2 96.8513 63.1330   1
 -19  -7  -4 1042.21 62.9726   1
 -19  -7   4 1057.59 80.7293   1
  -7  19  -4 1191.69 78.4817   1
  -7  19  -6 50.1120 51.3038   1
 -19  -7  -6 66.3150 46.2723   1
  -7  19   6 85.2979 91.1899   1
 -19  -8  -1 1482.72 73.9952   1
  -8  19   1 1270.50 95.2648   1
  -8  19  -1 1357.75 86.8518   1
 -19  -8  -3 837.002 66.9457   1
  -8  19   3 952.243 99.9032   1
  -8  19  -3 807.605 72.9745   1
 -19  -8  -5 886.053 64.5600   1
  -8  19   5 1114.61 112.864   1
  -8  19  -5 1093.59 81.1525   1
  -9  19   0 164.338 70.5419   1
 -19  -9   0 99.4185 47.5021   1
 -19  -9   2-39.6106 55.5137   1
 -19  -9  -2 16.0478 45.1913   1
  -9  19   2 82.4508 76.5845   1
  -9  19  -2 130.369 61.7484   1
 -19  -9   4 116.309 65.0952   1
 -19  -9  -4 117.932 50.6870   1
  -9  19   4 106.357 82.2552   1
  -9  19  -4 137.787 57.8473   1
 -19 -10   1 48.4412 56.1157   1
 -10  19   1 149.779 73.1131   1
 -19 -10  -1 125.314 46.8132   1
 -10  19  -1 33.7417 65.7243   1
 -19 -10   3 83.7470 54.7356   1
 -19 -10  -3 145.422 53.5749   1
 -10  19   3 99.7451 78.3057   1
 -10  19  -3 33.2288 57.6404   1
 -11  19   0-31.5936 68.1828   1
 -19 -11   0-73.1129 55.8406   1
 -19 -11   2 242.209 59.9339   1
 -11  19   2 290.813 80.0557   1
 -11  19  -2 319.306 66.2708   1
 -19 -11  -2 169.266 52.5039   1
  10  20   0 390.026 70.2783   1
 -10 -20   0 370.563 67.5971   1
   9  20   1 80.4007 64.1971   1
   9  20  -1 85.4562 64.3037   1
 -20   9   1 121.287 45.8597   1
  -9 -20  -1 57.0166 70.3397   1
  -9 -20   1 197.791 65.6872   1
   8  20   0 146.054 67.0351   1
  -8 -20   0 113.672 61.9239   1
  -8 -20   2 34.6490 55.8111   1
   8  20   2-36.1356 63.4712   1
   8  20  -2 169.624 70.0995   1
 -20   8   2-65.2353 50.2590   1
  -8 -20  -2 29.5784 63.9277   1
   7  20   1-72.1059 66.1713   1
   7  20  -1-21.0973 63.8702   1
 -20   7   1 37.7617 39.9154   1
  -7 -20   1-90.7874 56.6101   1
   7  20   3-9.73872 75.4926   1
   7  20  -3-89.2728 67.9513   1
 -20   7   3-28.0560 58.7201   1
  -7 -20  -3 42.4122 62.4539   1
   6  20   0 166.269 71.5651   1
 -20   6   0 102.677 41.9466   1
  -6 -20   0 63.3740 64.1335   1
   6  20   2 110.460 75.4076   1
   6  20  -2 26.5159 65.5067   1
  -6 -20  -2-33.6601 68.0700   1
 -20   6   2 17.1102 44.3694   1
   6  20   4 115.987 71.1109   1
 -20   6   4 27.4697 60.3931   1
   6  20  -4 26.8697 67.4827   1
  -6 -20  -4 118.718 69.3156   1
   5  20   1-26.1448 70.4900   1
   5  20  -1 23.1414 68.9268   1
 -20   5   1 98.1683 43.9272   1
  -5 -20  -1 78.2747 65.2311   1
   5  20   3 103.645 71.4423   1
   5  20  -3 29.7665 68.8414   1
  -5 -20  -3 7.34671 67.9033   1
 -20   5   3-5.64812 51.6596   1
   5  20   5 40.1203 75.8694   1
 -20   5   5-8.96172 59.6170   1
   5  20  -5-10.3951 70.7992   1
  -5 -20  -5 67.2237 76.5844   1
 -20   4   0 259.830 45.5206   1
   4  20   0 283.254 78.6851   1
  -4 -20   0 310.130 68.2008   1
   4  20   2-57.3579 73.2133   1
   4  20  -2 22.0914 68.9755   1
 -20   4   2-31.2068 48.3932   1
  -4 -20  -2 16.4830 71.9319   1
   4  20   4 315.389 86.5745   1
  -4 -20  -4 315.726 70.7527   1
   4  20  -4 295.045 73.1448   1
 -20   4   4 338.988 61.8468   1
   3  20   1 88.4359 76.5990   1
   3  20  -1 151.593 78.8452   1
 -20   3  -1 117.289 37.9775   1
  -3 -20  -1 100.752 59.9563   1
 -20   3   1 125.613 48.4991   1
   3  20   3-46.8220 84.0437   1
   3  20  -3 24.0718 68.4456   1
 -20   3   3 46.0796 52.2880   1
  -3 -20  -3 27.8320 66.5282   1
   3  20   5-11.9679 82.9888   1
   3  20  -5 89.0942 68.7939   1
  -3 -20  -5 168.236 70.1265   1
 -20   3   5 100.999 58.6412   1
   2  20   0-22.5029 74.8115   1
 -20   2   0 86.5477 40.0440   1
  -2 -20  -2 290.705 71.5292   1
   2  20   2 356.415 89.1427   1
 -20   2   2 220.844 53.5799   1
   2  20  -2 370.992 82.6332   1
   2  20   4 177.640 80.0380   1
   2  20  -4 96.1522 69.7848   1
 -20   2   4 142.270 59.4904   1
  -2 -20  -4 119.920 67.1438   1
   2  20  -6-28.8607 73.9053   1
  -2 -20  -6 51.7146 67.6659   1
 -20   2   6-61.7633 63.3050   1
   2  20   6 92.5834 78.8649   1
   1  20   1 275.396 84.0428   1
   1  20  -1 303.389 79.3798   1
 -20   1  -1 293.241 42.1367   1
 -20   1   1 275.846 42.7147   1
   1  20  -3 222.937 77.1667   1
  -1 -20  -3 55.5038 63.8145   1
 -20   1   3 198.368 55.3440   1
   1  20   3 57.3695 78.3791   1
  -1 -20  -5 418.198 73.4714   1
 -20   1   5 452.061 66.4510   1
   1  20   5 485.739 100.232   1
   1  20  -5 428.719 69.0285   1
 -20   0   0 7692.46 131.034   1
   0  20   0 5964.36 169.291   1
 -20   0  -2 738.562 45.0953   1
   0  20   2 570.020 90.7744   1
   0  20  -2 516.585 82.9036   1
 -20   0   2 460.294 59.6841   1
   0 -20  -4 3565.39 131.371   1
 -20   0   4 3292.65 110.427   1
   0  20   4 4064.01 154.269   1
   0  20  -4 4337.56 138.418   1
   0 -20  -6 334.254 72.9106   1
 -20   0   6 490.666 69.5443   1
   0  20  -6 476.450 71.1436   1
  -1  20  -1-98.9180 82.6686   1
 -20  -1  -1 4.62560 37.2673   1
 -20  -1   1-18.8346 45.0541   1
  -1  20   1 75.7853 70.3868   1
  -1  20  -3-89.5117 65.3742   1
 -20  -1   3-23.1692 52.7077   1
 -20  -1  -3 15.4787 32.0545   1
  -1  20   3-22.6752 76.4086   1
 -20  -1   5-15.5036 62.6845   1
  -1  20  -5 56.0220 65.1038   1
  -1  20   5-7.89518 80.9208   1
 -20  -2   0 44.2555 41.5944   1
  -2  20   0 62.8421 72.6203   1
 -20  -2  -2 55.8490 37.7703   1
  -2  20  -2 66.1150 79.1447   1
 -20  -2   2-65.8870 53.9620   1
  -2  20   2-14.4615 75.9674   1
  -2  20  -4 81.1806 64.1509   1
 -20  -2   4 76.7710 50.0021   1
  -2  20   4-88.8324 84.3913   1
  -2  20  -6 41.3349 61.0484   1
 -20  -2   6-6.89209 62.6450   1
  -2  20   6 158.725 87.4387   1
 -20  -3  -1 18.2375 39.7070   1
 -20  -3   1 26.1418 43.4766   1
  -3  20  -1 48.2291 72.7897   1
  -3  20  -3 18.3486 70.7727   1
 -20  -3   3-30.3502 56.2328   1
 -20  -3  -3 11.2638 33.5856   1
  -3  20   3 38.6809 87.4342   1
  -3  20  -5 48.2342 66.0109   1
 -20  -3   5 162.535 64.4871   1
  -3  20   5 7.99244 78.3673   1
 -20  -4   0 191.401 47.6172   1
  -4  20   0 382.657 82.2458   1
 -20  -4  -2 1001.19 59.2290   1
 -20  -4   2 962.440 71.3164   1
  -4  20  -2 1142.47 88.4480   1
 -20  -4   4 202.436 61.6181   1
 -20  -4  -4 256.997 43.6033   1
  -4  20   4 472.847 91.7486   1
  -4  20  -4 410.654 72.8495   1
 -20  -5  -1 1604.14 71.4115   1
 -20  -5   1 1536.03 75.3890   1
  -5  20   1 1516.65 110.461   1
 -20  -5  -3 970.640 55.9472   1
  -5  20   3 891.869 100.108   1
 -20  -5   3 987.283 77.3287   1
  -5  20  -3 962.857 89.6998   1
 -20  -5  -5 1137.19 64.3521   1
  -5  20   5 1134.14 112.807   1
  -5  20  -5 903.067 79.6107   1
 -20  -5   5 1240.82 91.4949   1
 -20  -6   0 293.759 55.2073   1
  -6  20   0 432.162 89.4033   1
 -20  -6  -2 305.857 44.7626   1
 -20  -6   2 317.618 57.9924   1
  -6  20   2 432.957 89.7483   1
  -6  20  -2 374.828 85.0453   1
  -6  20  -4 132.715 69.9783   1
 -20  -6   4 119.529 61.2634   1
 -20  -6  -4 154.265 46.2660   1
  -6  20   4 162.964 88.6946   1
 -20  -7   1 215.108 56.0160   1
  -7  20   1 44.0536 78.1090   1
  -7  20  -1 76.6876 72.9941   1
 -20  -7  -1 35.1923 46.8905   1
 -20  -7   3 82.5098 59.1785   1
 -20  -7  -3 78.5495 46.2911   1
  -7  20   3 185.500 86.9907   1
  -7  20  -3 59.6778 64.0003   1
 -20  -8   0-26.3624 54.0909   1
  -8  20   0 58.2719 71.9289   1
 -20  -8   2-88.9591 56.5813   1
 -20  -8  -2-21.9611 45.2754   1
  -8  20   2 20.6975 75.6693   1
  -8  20  -2 45.7542 67.4829   1
 -20  -9  -1 361.747 61.9037   1
 -20  -9   1 294.148 58.9139   1
  -9  20  -1 329.788 67.4869   1
  -9  20   1 266.418 80.0148   1
 -20 -10   0 800.625 68.6696   1
 -10  20   0 1034.84 97.2197   1
   7  21   0-10.5257 66.0927   1
  -7 -21   0-24.7154 62.8802   1
 -21   7   2 35.8274 53.7324   1
   7  21   2-49.9041 71.8906   1
   7  21  -2 108.282 69.5386   1
  -7 -21  -2-69.1945 66.9027   1
   6  21   1 40.5288 75.4442   1
   6  21  -1 72.7777 69.4570   1
 -21   6   1-39.5701 45.3661   1
  -6 -21  -1-58.8696 73.9552   1
   6  21   3 5.91674 76.0196   1
   6  21  -3 12.2697 72.0534   1
  -6 -21  -3 98.6958 75.8001   1
 -21   6   3 83.5251 47.9640   1
 -21   5   0 151.612 47.2432   1
  -5 -21   0 158.326 62.7846   1
   5  21   2 135.721 75.4726   1
 -21   5   2 305.057 52.1921   1
  -5 -21  -2 113.004 65.3925   1
   5  21  -2 340.965 76.7897   1
   4  21   1 80.9741 73.8576   1
   4  21  -1 27.1231 76.8319   1
 -21   4   1 84.1595 49.3647   1
  -4 -21  -1-107.606 65.0353   1
   4  21   3-16.3296 79.5901   1
   4  21  -3 0.41156 66.4349   1
 -21   4   3-14.0120 50.1919   1
  -4 -21  -3 62.7759 65.4135   1
 -21   3   0 921.179 57.3225   1
   3  21   0 680.510 88.9383   1
 -21   3   2 933.489 68.9415   1
  -3 -21  -2 1112.83 89.2399   1
   3  21   2 1044.72 105.235   1
   3  21  -2 1004.31 94.3014   1
  -3 -21  -4 549.989 79.1943   1
 -21   3   4 452.551 61.5264   1
   3  21   4 588.181 101.913   1
   3  21  -4 451.479 78.2277   1
 -21   2   1 585.474 51.3788   1
 -21   2  -1 517.264 49.3990   1
 -21   2   3 537.375 66.9398   1
  -2 -21  -3 342.638 73.8414   1
   2  21   3 642.134 97.3351   1
   2  21  -3 574.130 86.0423   1
   1  21   0-39.7232 90.5537   1
 -21   1   0 111.422 44.1122   1
   1  21   2 157.081 92.0537   1
   1  21  -2 132.696 77.2471   1
 -21   1   2-38.5392 41.8511   1
   1  21  -4 54.5523 74.5174   1
 -21   1   4 86.6914 58.2914   1
   1  21   4-82.6555 89.5868   1
   0  21   1 29.3064 84.6458   1
   0  21  -1 54.5548 80.6655   1
 -21   0  -1 39.3458 36.5444   1
 -21   0   1 122.445 48.8298   1
   0  21  -3-67.9641 80.0282   1
 -21   0   3-20.9371 51.0834   1
   0  21   3 136.095 82.5263   1
 -21  -1   0 2638.82 81.9683   1
  -1  21   0 4112.80 158.024   1
 -21  -1  -2 424.807 42.2705   1
  -1  21   2 648.547 100.180   1
  -1  21  -2 623.201 88.6309   1
 -21  -1   2 318.139 50.7913   1
  -1  21   4 2652.81 136.352   1
  -1  21  -4 2820.51 124.604   1
 -21  -2  -1 925.479 55.4920   1
 -21  -2   1 831.193 62.4297   1
  -2  21   1 843.302 100.398   1
  -2  21  -1 685.492 95.5688   1
 -21  -2  -3 532.072 45.5575   1
  -2  21   3 621.415 92.0915   1
  -2  21  -3 551.954 81.7446   1
 -21  -2   3 431.966 64.0305   1
 -21  -3   0 310.637 50.4487   1
  -3  21   0 492.635 91.7677   1
  -3  21  -2 37.9891 77.5902   1
 -21  -3  -2-14.3618 40.6165   1
 -21  -3   2 144.714 52.1361   1
  -3  21   2 157.571 82.6836   1
  -3  21  -4 209.859 69.3334   1
 -21  -3   4 269.957 62.2610   1
  -3  21   4 386.720 97.7238   1
 -21  -4  -1 54.1233 44.9435   1
 -21  -4   1-39.2914 46.3085   1
  -4  21   1 109.872 79.7355   1
  -4  21  -1-85.4499 76.4143   1
  -4  21  -3 34.5090 73.9569   1
 -21  -4   3 10.6123 55.0476   1
 -21  -4  -3 18.6188 35.9770   1
  -4  21   3 11.9591 90.2020   1
 -21  -5   0 154.587 48.6277   1
  -5  21   0 107.642 77.8814   1
 -21  -5   2 21.0017 54.4967   1
  -5  21   2-50.2888 86.0540   1
 -21  -5  -2 46.2652 44.2327   1
  -5  21  -2-34.3148 72.3218   1
 -21  -6  -1 385.351 57.5975   1
 -21  -6   1 359.489 57.9221   1
  -6  21  -1 462.900 80.0789   1
  -6  21   1 331.372 88.1489   1
 -21  -6  -3 527.980 51.5275   1
 -21  -6   3 389.328 65.0517   1
  -6  21  -3 600.963 82.6565   1
  -6  21   3 414.542 90.9713   1
 -21  -7   0 1393.02 77.7101   1
  -7  21   0 1252.82 105.170   1
 -21  -7  -2 874.216 63.1495   1
 -21  -7   2 796.155 69.2982   1
  -7  21  -2 946.363 97.7870   1
 -22   4   0 163.543 47.3529   1
   4  22   0 66.9251 83.6445   1
 -22   3   1-72.2069 51.1999   1
   3  22   1 84.3511 83.7468   1
   3  22  -1 53.5183 82.7513   1
   2  22   0 167.148 83.1823   1
 -22   2   0 41.2828 43.2493   1
 -22   2   2 318.636 56.8926   1
   2  22   2 535.597 103.279   1
   2  22  -2 545.371 98.0485   1
 -22   1  -1 1797.88 66.5534   1
 -22   1   1 1782.11 77.5380   1
 -22   0   0 435.415 53.6283   1
   0  22   0 679.258 103.172   1
 -22   0   2 240.328 51.4573   1
   0  22   2 384.129 100.241   1
   0  22  -2 408.350 84.1427   1
  -1  22   1 107.543 89.7276   1
 -22  -1  -1-32.7514 39.0115   1
 -22  -1   1 60.3478 47.0439   1
  -2  22   0-9.93028 85.0737   1
 -22  -2   0-16.1416 42.1144   1
  -2  22  -2 125.900 87.6648   1
 -22  -2  -2-14.9574 38.6822   1
 -22  -2   2-0.15532 50.3319   1
  -2  22   2 60.2317 89.8662   1
  -3  22  -1 127.508 88.2028   1
 -22  -3  -1 18.1079 41.2580   1
 -22  -3   1 65.5122 50.1426   1
  -3  22   1 133.938 90.7642   1
 -22  -4   0 956.371 63.4045   1
  -4  22   0 1017.98 105.385   1
   0   0   0    0.00    0.00   0

TITL fin in I4/m
REM I4/m (#87 in standard setting)
CELL 0.71073  17.898225  17.898225  11.535088  90.0000  90.0000  90.0000
ZERR   20.00   0.000616   0.000616   0.000489   0.0000   0.0000   0.0000
LATT  2
SYMM -x,-y, z
SYMM -y, x, z
SYMM  y,-x, z
SFAC Br In Cs
UNIT 60.00 20.00 20.00
TREF
HKLF 4
END
;
_shelx_hkl_checksum              53054
_olex2_submission_special_instructions 'No special instructions were received'
loop_
_space_group_symop_operation_xyz
'x, y, z'
'-x, -y, z'
'-y, x, z'
'y, -x, z'
'x+1/2, y+1/2, z+1/2'
'-x+1/2, -y+1/2, z+1/2'
'-y+1/2, x+1/2, z+1/2'
'y+1/2, -x+1/2, z+1/2'
'-x, -y, -z'
'x, y, -z'
'y, -x, -z'
'-y, x, -z'
'-x+1/2, -y+1/2, -z+1/2'
'x+1/2, y+1/2, -z+1/2'
'y+1/2, -x+1/2, -z+1/2'
'-y+1/2, x+1/2, -z+1/2'
loop_
_atom_site_label
_atom_site_type_symbol
_atom_site_fract_x
_atom_site_fract_y
_atom_site_fract_z
_atom_site_U_iso_or_equiv
_atom_site_adp_type
_atom_site_occupancy
_atom_site_site_symmetry_order
_atom_site_calc_flag
_atom_site_refinement_flags_posn
_atom_site_refinement_flags_adp
_atom_site_refinement_flags_occupancy
Cs1 Cs 0.000000 0.500000 0.250000 0.0715(10) Uani 1 4 d S T P
Cs2 Cs 0.10883(12) 0.21177(14) 0.27784(18) 0.0777(8) Uani 1 1 d . . .
In1 In 0.000000 0.000000 0.000000 0.0305(9) Uani 1 8 d S T P
In2 In 0.000000 0.000000 0.500000 0.0724(17) Uani 1 8 d S T P
In3 In 0.19618(11) 0.40750(11) 0.000000 0.0314(6) Uani 1 2 d S T P
In4 In 0.25301(19) 0.08315(17) 0.000000 0.0672(9) Uani 1 2 d S T P
Br1 Br 0.000000 0.000000 0.2300(4) 0.084(2) Uani 1 4 d S T P
Br2 Br 0.29969(17) 0.09354(16) 0.2656(2) 0.0652(9) Uani 1 1 d . . .
Br3 Br 0.0661(2) 0.13440(18) 0.000000 0.0521(9) Uani 1 2 d S T P
Br4 Br 0.0557(2) 0.3613(3) 0.000000 0.0708(13) Uani 1 2 d S T P
Br5 Br 0.2438(2) 0.26404(17) 0.000000 0.0483(8) Uani 1 2 d S T P
Br6 Br 0.45134(17) 0.1497(2) 0.000000 0.0455(8) Uani 1 2 d S T P
Br7 Br 0.3373(2) 0.4518(3) 0.000000 0.0622(11) Uani 1 2 d S T P
loop_
_atom_site_aniso_label
_atom_site_aniso_U_11
_atom_site_aniso_U_22
_atom_site_aniso_U_33
_atom_site_aniso_U_23
_atom_site_aniso_U_13
_atom_site_aniso_U_12
Cs1 0.0763(15) 0.0763(15) 0.062(2) 0.000 0.000 0.000
Cs2 0.0717(12) 0.1087(17) 0.0526(11) -0.0225(10) -0.0032(8) 0.0018(10)
In1 0.0324(12) 0.0324(12) 0.0269(17) 0.000 0.000 0.000
In2 0.081(3) 0.081(3) 0.054(3) 0.000 0.000 0.000
In3 0.0336(10) 0.0283(10) 0.0322(11) 0.000 0.000 -0.0019(7)
In4 0.089(2) 0.0487(15) 0.0642(18) 0.000 0.000 0.0101(14)
Br1 0.111(3) 0.111(3) 0.029(2) 0.000 0.000 0.000
Br2 0.087(2) 0.0684(17) 0.0403(14) 0.0030(11) 0.0040(13) 0.0054(14)
Br3 0.0502(19) 0.0403(17) 0.066(2) 0.000 0.000 -0.0078(14)
Br4 0.0393(19) 0.066(3) 0.107(4) 0.000 0.000 -0.0116(18)
Br5 0.058(2) 0.0286(15) 0.0587(19) 0.000 0.000 0.0030(14)
Br6 0.0341(16) 0.0535(19) 0.0489(17) 0.000 0.000 -0.0077(14)
Br7 0.0394(18) 0.066(2) 0.082(3) 0.000 0.000 -0.0107(18)
loop_
_atom_type_symbol
_atom_type_description
_atom_type_scat_dispersion_real
_atom_type_scat_dispersion_imag
_atom_type_scat_source
Br Br -0.2901 2.4595 'International Tables Vol C Tables 4.2.6.8 and 6.1.1.4'
Cs Cs -0.3680 2.1192 'International Tables Vol C Tables 4.2.6.8 and 6.1.1.4'
In In -0.7276 1.3100 'International Tables Vol C Tables 4.2.6.8 and 6.1.1.4'
loop_
_geom_angle_atom_site_label_1
_geom_angle_atom_site_label_2
_geom_angle_atom_site_label_3
_geom_angle
_geom_angle_site_symmetry_1
_geom_angle_site_symmetry_3
Br2 Cs1 Br2 174.78(8) 4_565 3
Br2 Cs1 Br2 90.119(4) 3 13
Br2 Cs1 Br2 90.119(4) 4_565 13
Br2 Cs1 Br2 90.119(4) 4_565 14_455
Br2 Cs1 Br2 90.119(4) 3 14_455
Br2 Cs1 Br2 174.78(8) 14_455 13
Br2 Cs1 Br6 63.65(6) 14_455 5_455
Br2 Cs1 Br6 63.65(6) 13 13
Br2 Cs1 Br6 57.12(6) 3 13
Br2 Cs1 Br6 63.65(6) 4_565 11_565
Br2 Cs1 Br6 118.54(6) 3 5_455
Br2 Cs1 Br6 57.12(6) 13 11_565
Br2 Cs1 Br6 120.60(6) 13 5_455
Br2 Cs1 Br6 120.60(6) 4_565 3
Br2 Cs1 Br6 118.54(6) 14_455 11_565
Br2 Cs1 Br6 63.65(6) 3 3
Br2 Cs1 Br6 118.54(6) 4_565 13
Br2 Cs1 Br6 57.12(6) 14_455 3
Br2 Cs1 Br6 120.60(6) 14_455 13
Br2 Cs1 Br6 118.54(6) 13 3
Br2 Cs1 Br6 57.12(6) 4_565 5_455
Br2 Cs1 Br6 120.60(6) 3 11_565
Br4 Cs1 Br2 64.48(7) 7 13
Br4 Cs1 Br2 119.84(7) 9_565 3
Br4 Cs1 Br2 58.02(7) 9_565 14_455
Br4 Cs1 Br2 117.58(7) 9_565 13
Br4 Cs1 Br2 117.57(7) . 14_455
Br4 Cs1 Br2 119.84(7) 15_455 13
Br4 Cs1 Br2 58.02(7) . 13
Br4 Cs1 Br2 119.84(7) . 4_565
Br4 Cs1 Br2 58.02(7) 15_455 3
Br4 Cs1 Br2 58.02(7) 7 4_565
Br4 Cs1 Br2 119.84(7) 7 14_455
Br4 Cs1 Br2 64.48(7) 9_565 4_565
Br4 Cs1 Br2 64.48(7) 15_455 14_455
Br4 Cs1 Br2 117.58(7) 15_455 4_565
Br4 Cs1 Br2 117.58(7) 7 3
Br4 Cs1 Br2 64.48(7) . 3
Br4 Cs1 Br4 85.72(11) 7 15_455
Br4 Cs1 Br4 122.50(7) 7 9_565
Br4 Cs1 Br4 122.50(7) . 7
Br4 Cs1 Br4 122.50(7) 9_565 15_455
Br4 Cs1 Br4 122.50(7) . 15_455
Br4 Cs1 Br4 85.72(11) . 9_565
Br4 Cs1 Br6 56.19(7) . 11_565
Br4 Cs1 Br6 60.52(7) 7 13
Br4 Cs1 Br6 176.95(7) 7 3
Br4 Cs1 Br6 92.87(6) 7 11_565
Br4 Cs1 Br6 56.19(7) 15_455 13
Br4 Cs1 Br6 60.52(7) 9_565 11_565
Br4 Cs1 Br6 92.87(6) 15_455 3
Br4 Cs1 Br6 176.95(7) 15_455 11_565
Br4 Cs1 Br6 176.95(7) 9_565 13
Br4 Cs1 Br6 176.95(7) . 5_455
Br4 Cs1 Br6 60.52(7) . 3
Br4 Cs1 Br6 56.19(7) 7 5_455
Br4 Cs1 Br6 56.19(7) 9_565 3
Br4 Cs1 Br6 92.87(6) 9_565 5_455
Br4 Cs1 Br6 92.87(6) . 13
Br4 Cs1 Br6 60.52(7) 15_455 5_455
Br6 Cs1 Br6 120.77(5) 3 5_455
Br6 Cs1 Br6 120.77(5) 11_565 13
Br6 Cs1 Br6 88.67(9) 5_455 13
Br6 Cs1 Br6 88.67(9) 3 11_565
Br6 Cs1 Br6 120.77(5) 3 13
Br6 Cs1 Br6 120.77(5) 5_455 11_565
Cs2 Cs2 Cs2 96.99(5) 10_556 13
Br2 Cs2 Cs2 47.02(5) . 13
Br2 Cs2 Cs2 140.40(10) 3 13
Br2 Cs2 Cs2 92.01(5) . 10_556
Br2 Cs2 Cs2 49.26(6) 13 13
Br2 Cs2 Cs2 92.04(5) 3 10_556
Br2 Cs2 Cs2 97.42(5) 13 10_556
Br2 Cs2 Br2 170.77(10) 3 .
Br2 Cs2 Br2 96.29(8) 13 .
Br2 Cs2 Br2 91.41(10) 13 3
Br2 Cs2 Br4 55.68(7) 13 .
Br2 Cs2 Br4 119.42(8) . .
Br2 Cs2 Br4 61.38(7) 3 .
Br2 Cs2 Br5 56.54(7) 13 .
Br2 Cs2 Br5 114.79(8) 3 .
Br2 Cs2 Br5 66.05(7) . .
Br2 Cs2 Br7 122.30(8) 3 13
Br2 Cs2 Br7 126.17(8) 13 15_455
Br2 Cs2 Br7 129.53(8) 13 13
Br3 Cs2 Cs2 101.31(8) . 13
Br3 Cs2 Cs2 153.74(6) . 10_556
Br3 Cs2 Br2 108.79(8) . 13
Br3 Cs2 Br2 85.78(9) . 3
Br3 Cs2 Br2 86.92(8) . .
Br3 Cs2 Br4 61.54(8) . .
Br3 Cs2 Br5 144.91(10) . 13
Br3 Cs2 Br5 61.05(7) . .
Br3 Cs2 Br6 144.40(10) . 13
Br3 Cs2 Br7 109.98(9) . 13
Br3 Cs2 Br7 110.35(9) . 15_455
Br4 Cs2 Cs2 138.46(6) . 10_556
Br4 Cs2 Cs2 87.67(8) . 13
Br5 Cs2 Cs2 141.04(6) . 10_556
Br5 Cs2 Cs2 51.07(6) 13 13
Br5 Cs2 Cs2 44.33(6) . 13
Br5 Cs2 Cs2 46.20(6) 13 10_556
Br5 Cs2 Br2 71.58(8) 13 13
Br5 Cs2 Br2 129.12(8) 13 3
Br5 Cs2 Br2 58.71(7) 13 .
Br5 Cs2 Br4 127.09(10) 13 .
Br5 Cs2 Br4 53.57(7) . .
Br5 Cs2 Br5 95.40(5) 13 .
Br5 Cs2 Br6 69.63(7) 13 13
Br5 Cs2 Br7 58.10(7) 13 13
Br5 Cs2 Br7 94.86(9) 13 15_455
Br6 Cs2 Cs2 100.84(8) 13 13
Br6 Cs2 Cs2 46.53(6) 13 10_556
Br6 Cs2 Br2 59.63(7) 13 3
Br6 Cs2 Br2 67.26(7) 13 13
Br6 Cs2 Br2 128.32(8) 13 .
Br6 Cs2 Br4 92.00(7) 13 .
Br6 Cs2 Br5 123.60(9) 13 .
Br6 Cs2 Br7 96.66(9) 13 13
Br6 Cs2 Br7 59.32(7) 13 15_455
Br7 Cs2 Cs2 92.10(8) 13 13
Br7 Cs2 Cs2 48.96(6) 15_455 10_556
Br7 Cs2 Cs2 50.26(5) 13 10_556
Br7 Cs2 Cs2 145.90(9) 15_455 13
Br7 Cs2 Br2 121.09(9) 15_455 .
Br7 Cs2 Br2 55.49(7) 13 .
Br7 Cs2 Br2 56.84(7) 15_455 3
Br7 Cs2 Br4 118.17(8) 15_455 .
Br7 Cs2 Br4 171.23(10) 13 .
Br7 Cs2 Br5 121.45(8) 13 .
Br7 Cs2 Br5 169.65(10) 15_455 .
Br7 Cs2 Br7 65.76(9) 15_455 13
Br1 In1 Br1 180.0 . 9
Br1 In1 Br3 90.0 9 3
Br1 In1 Br3 90.0 9 9
Br1 In1 Br3 90.0 9 .
Br1 In1 Br3 90.0 . .
Br1 In1 Br3 90.0 . 9
Br1 In1 Br3 90.0 9 11
Br1 In1 Br3 90.0 . 3
Br1 In1 Br3 90.0 . 11
Br3 In1 Br3 90.0 9 11
Br3 In1 Br3 90.0 9 3
Br3 In1 Br3 180.00(14) 11 3
Br3 In1 Br3 180.0 9 .
Br3 In1 Br3 90.0 11 .
Br3 In1 Br3 90.0 3 .
Br7 In2 Br7 90.0 5_445 15_455
Br7 In2 Br7 90.0 5_445 7_545
Br7 In2 Br7 180.0 15_455 7_545
Br7 In2 Br7 180.0 13 5_445
Br7 In2 Br7 90.0 13 15_455
Br7 In2 Br7 90.0 13 7_545
Br2 In3 Br2 176.77(16) 13 6_554
Br2 In3 Br5 89.13(7) 13 .
Br2 In3 Br5 89.13(7) 6_554 .
Br4 In3 Br2 91.37(8) . 6_554
Br4 In3 Br2 91.37(8) . 13
Br4 In3 Br5 90.15(13) . .
Br4 In3 Br6 90.00(13) . 11_565
Br4 In3 Br7 179.21(15) . .
Br6 In3 Br2 90.86(7) 11_565 6_554
Br6 In3 Br2 90.86(7) 11_565 13
Br6 In3 Br5 179.84(13) 11_565 .
Br7 In3 Br2 88.62(8) . 6_554
Br7 In3 Br2 88.62(8) . 13
Br7 In3 Br5 89.06(12) . .
Br7 In3 Br6 90.79(12) . 11_565
Cs1 Br2 Cs2 173.24(9) 13 .
Cs2 Br2 Cs1 89.53(7) 13 13
Cs2 Br2 Cs1 88.55(7) 4 13
Cs2 Br2 Cs2 174.37(8) 13 4
Cs2 Br2 Cs2 83.71(8) 13 .
Cs2 Br2 Cs2 98.21(10) 4 .
In3 Br2 Cs1 91.02(9) 13 13
In3 Br2 Cs2 97.11(9) 13 13
In3 Br2 Cs2 89.53(9) 13 .
In3 Br2 Cs2 88.22(8) 13 4
Cs2 Br3 Cs2 127.47(12) . 10
In1 Br3 Cs2 116.23(6) . .
In1 Br3 Cs2 116.23(6) . 10
Cs1 Br4 Cs1 94.28(11) . 9_565
Cs1 Br4 Cs2 84.38(3) . .
Cs1 Br4 Cs2 84.38(3) 9_565 10
Cs1 Br4 Cs2 177.95(11) 9_565 .
Cs1 Br4 Cs2 177.95(11) . 10
Cs2 Br4 Cs2 96.92(12) . 10
In3 Br4 Cs1 92.49(10) . .
In3 Br4 Cs1 92.49(10) . 9_565
In3 Br4 Cs2 89.12(10) . 10
In3 Br4 Cs2 89.12(10) . .
Cs2 Br5 Cs2 169.22(10) 13 10
Cs2 Br5 Cs2 84.60(5) 6_554 10
Cs2 Br5 Cs2 102.09(11) 10 .
Cs2 Br5 Cs2 84.60(5) 13 .
Cs2 Br5 Cs2 169.22(10) 6_554 .
Cs2 Br5 Cs2 87.60(12) 13 6_554
In3 Br5 Cs2 96.52(9) . 13
In3 Br5 Cs2 91.75(8) . .
In3 Br5 Cs2 91.75(8) . 10
In3 Br5 Cs2 96.52(9) . 6_554
Cs1 Br6 Cs1 91.33(9) 5_544 13
Cs2 Br6 Cs1 175.53(9) 13 5_544
Cs2 Br6 Cs1 175.53(9) 6_554 13
Cs2 Br6 Cs1 90.73(4) 6_554 5_544
Cs2 Br6 Cs1 90.73(4) 13 13
Cs2 Br6 Cs2 86.94(12) 13 6_554
In3 Br6 Cs1 90.15(8) 3_655 5_544
In3 Br6 Cs1 90.15(8) 3_655 13
In3 Br6 Cs2 93.81(9) 3_655 6_554
In3 Br6 Cs2 93.81(9) 3_655 13
Cs2 Br7 Cs2 79.47(11) 6_554 13
Cs2 Br7 Cs2 99.22(5) 16 13
Cs2 Br7 Cs2 99.22(5) 7_554 6_554
Cs2 Br7 Cs2 82.07(11) 16 7_554
Cs2 Br7 Cs2 178.53(10) 16 6_554
Cs2 Br7 Cs2 178.53(10) 7_554 13
In2 Br7 Cs2 88.66(9) 5_554 13
In2 Br7 Cs2 88.66(9) 5_554 6_554
In2 Br7 Cs2 90.64(9) 5_554 7_554
In2 Br7 Cs2 90.64(9) 5_554 16
In3 Br7 Cs2 90.62(10) . 13
In3 Br7 Cs2 90.07(11) . 16
In3 Br7 Cs2 90.62(10) . 6_554
In3 Br7 Cs2 90.07(11) . 7_554
In3 Br7 In2 179.1(2) . 5_554
loop_
_geom_bond_atom_site_label_1
_geom_bond_atom_site_label_2
_geom_bond_distance
_geom_bond_site_symmetry_2
Cs1 Br2 3.961(3) 4_565
Cs1 Br2 3.961(3) 14_455
Cs1 Br2 3.961(3) 3
Cs1 Br2 3.961(3) 13
Cs1 Br4 3.934(4) .
Cs1 Br4 3.934(4) 15_455
Cs1 Br4 3.934(4) 7
Cs1 Br4 3.934(4) 9_565
Cs1 Br6 4.032(3) 11_565
Cs1 Br6 4.032(3) 13
Cs1 Br6 4.032(3) 3
Cs1 Br6 4.032(3) 5_455
Cs2 Cs2 5.125(4) 10_556
Cs2 Cs2 5.275(4) 13
Cs2 Br2 3.883(4) 13
Cs2 Br2 3.952(3) 3
Cs2 Br2 4.021(4) .
Cs2 Br3 3.574(2) .
Cs2 Br4 4.282(4) .
Cs2 Br5 3.703(4) 13
Cs2 Br5 4.121(3) .
Cs2 Br6 3.725(4) 13
Cs2 Br7 4.009(5) 13
Cs2 Br7 3.903(4) 15_455
In1 Br1 2.653(5) 9
In1 Br1 2.653(5) .
In1 Br3 2.681(3) 11
In1 Br3 2.681(3) 9
In1 Br3 2.681(3) .
In1 Br3 2.681(3) 3
In2 Br7 3.038(3) 13
In2 Br7 3.038(3) 7_545
In2 Br7 3.038(3) 5_445
In2 Br7 3.038(3) 15_455
In3 Br2 2.705(3) 13
In3 Br2 2.705(3) 6_554
In3 Br4 2.647(4) .
In3 Br5 2.706(3) .
In3 Br6 2.660(3) 11_565
In3 Br7 2.647(4) .
loop_
_twin_individual_id
_twin_individual_mass_fraction_refined
1 0.582(13)
2 0.418(13)
