#------------------------------------------------------------------------------
#$Date: 2020-05-02 23:27:32 +0300 (Sat, 02 May 2020) $
#$Revision: 251411 $
#$URL: file:///home/coder/svn-repositories/cod/cif/4/13/48/4134877.cif $
#------------------------------------------------------------------------------
#
# This file is available in the Crystallography Open Database (COD),
# http://www.crystallography.net/
#
# All data on this site have been placed in the public domain by the
# contributors.
#
data_4134877
loop_
_publ_author_name
'McClymont, Kyle S.'
'Wang, Feng-Yuan'
'Minakar, Amin'
'Baran, Phil S.'
_publ_section_title
;
 Total Synthesis of (-)-Maximiscin.
;
_journal_name_full               'Journal of the American Chemical Society'
_journal_paper_doi               10.1021/jacs.0c03202
_journal_year                    2020
_chemical_absolute_configuration ad
_chemical_formula_moiety         'C13 H20 O4'
_chemical_formula_sum            'C13 H20 O4'
_chemical_formula_weight         240.29
_space_group_crystal_system      trigonal
_space_group_IT_number           144
_space_group_name_Hall           'P 31'
_space_group_name_H-M_alt        'P 31'
_atom_sites_solution_hydrogens   geom
_atom_sites_solution_primary     dual
_audit_creation_date             2019-10-15
_audit_creation_method
;
Olex2 1.2
(compiled 2018.05.29 svn.r3508 for OlexSys, GUI svn.r5506)
;
_cell_angle_alpha                90
_cell_angle_beta                 90
_cell_angle_gamma                120
_cell_formula_units_Z            3
_cell_length_a                   9.34920(10)
_cell_length_b                   9.34920(10)
_cell_length_c                   13.5555(2)
_cell_measurement_reflns_used    9846
_cell_measurement_temperature    100.0
_cell_measurement_theta_max      69.965
_cell_measurement_theta_min      5.463
_cell_volume                     1026.11(2)
_computing_cell_refinement       'SAINT V8.38A (?, 2016)'
_computing_data_reduction        'SAINT V8.38A (?, 2016)'
_computing_molecular_graphics    'Olex2 (Dolomanov et al., 2009)'
_computing_publication_material  'Olex2 (Dolomanov et al., 2009)'
_computing_structure_refinement  'XL (Sheldrick, 2008)'
_computing_structure_solution    'XT (Sheldrick, 2015)'
_diffrn_ambient_temperature      100.0
_diffrn_measured_fraction_theta_full 0.999
_diffrn_measured_fraction_theta_max 0.999
_diffrn_measurement_device_type  'Bruker APEX-II CCD'
_diffrn_measurement_method       '\f and \w scans'
_diffrn_radiation_type           CuK\a
_diffrn_radiation_wavelength     1.54178
_diffrn_reflns_av_R_equivalents  0.0297
_diffrn_reflns_av_unetI/netI     0.0216
_diffrn_reflns_Laue_measured_fraction_full 0.999
_diffrn_reflns_Laue_measured_fraction_max 0.999
_diffrn_reflns_limit_h_max       11
_diffrn_reflns_limit_h_min       -11
_diffrn_reflns_limit_k_max       11
_diffrn_reflns_limit_k_min       -11
_diffrn_reflns_limit_l_max       16
_diffrn_reflns_limit_l_min       -16
_diffrn_reflns_number            12778
_diffrn_reflns_point_group_measured_fraction_full 0.999
_diffrn_reflns_point_group_measured_fraction_max 0.998
_diffrn_reflns_theta_full        67.679
_diffrn_reflns_theta_max         69.958
_diffrn_reflns_theta_min         5.463
_diffrn_standards_number         0
_exptl_absorpt_coefficient_mu    0.701
_exptl_absorpt_correction_T_max  0.7533
_exptl_absorpt_correction_T_min  0.6731
_exptl_absorpt_correction_type   multi-scan
_exptl_absorpt_process_details
'SADABS-2016/2 (Bruker,2016/2) was used for absorption correction. wR2(int) was 0.0640 before and 0.0511 after correction. The Ratio of minimum to maximum transmission is 0.8935. The \l/2 correction factor is Not present.'
_exptl_crystal_colour            'clear colourless'
_exptl_crystal_colour_lustre     clear
_exptl_crystal_colour_primary    colourless
_exptl_crystal_density_diffrn    1.167
_exptl_crystal_description       block
_exptl_crystal_F_000             390
_exptl_crystal_size_max          0.14
_exptl_crystal_size_mid          0.14
_exptl_crystal_size_min          0.14
_refine_diff_density_max         0.216
_refine_diff_density_min         -0.120
_refine_diff_density_rms         0.027
_refine_ls_abs_structure_details
;
 Flack x determined using 1265 quotients [(I+)-(I-)]/[(I+)+(I-)]
 (Parsons, Flack and Wagner, Acta Cryst. B69 (2013) 249-259).
;
_refine_ls_abs_structure_Flack   0.04(5)
_refine_ls_extinction_coef       0.0024(8)
_refine_ls_extinction_expression Fc^*^=kFc[1+0.001xFc^2^\l^3^/sin(2\q)]^-1/4^
_refine_ls_extinction_method     'SHELXL-2014/7 (Sheldrick 2014'
_refine_ls_goodness_of_fit_ref   1.065
_refine_ls_hydrogen_treatment    mixed
_refine_ls_matrix_type           full
_refine_ls_number_parameters     161
_refine_ls_number_reflns         2604
_refine_ls_number_restraints     1
_refine_ls_restrained_S_all      1.064
_refine_ls_R_factor_all          0.0256
_refine_ls_R_factor_gt           0.0253
_refine_ls_shift/su_max          0.000
_refine_ls_shift/su_mean         0.000
_refine_ls_structure_factor_coef Fsqd
_refine_ls_weighting_details
'w=1/[\s^2^(Fo^2^)+(0.0401P)^2^+0.0858P] where P=(Fo^2^+2Fc^2^)/3'
_refine_ls_weighting_scheme      calc
_refine_ls_wR_factor_gt          0.0665
_refine_ls_wR_factor_ref         0.0670
_reflns_Friedel_coverage         0.997
_reflns_Friedel_fraction_full    0.999
_reflns_Friedel_fraction_max     0.996
_reflns_number_gt                2579
_reflns_number_total             2604
_reflns_threshold_expression     'I > 2\s(I)'
_cod_data_source_file            ja0c03202_si_004.cif
_cod_data_source_block           baran744
_cod_original_cell_volume        1026.11(3)
_cod_database_code               4134877
_shelx_shelxl_version_number     2014/7
_shelx_space_group_comment
;
The symmetry employed for this shelxl refinement is uniquely defined
by the following loop, which should always be used as a source of
symmetry information in preference to the above space-group names.
They are only intended as comments.
;
_shelx_estimated_absorpt_t_max   0.908
_shelx_estimated_absorpt_t_min   0.908
_olex2_refinement_description
;
1. Fixed Uiso
 At 1.2 times of:
  All C(H) groups, All C(H,H) groups
 At 1.5 times of:
  All C(H,H,H) groups, All O(H) groups
2.a Ternary CH refined with riding coordinates:
 C1(H1), C2(H2A), C4(H4A), C6(H6), C11(H11)
2.b Secondary CH2 refined with riding coordinates:
 C3(H3A,H3B), C5(H5A,H5B)
2.c Aromatic/amide H refined with riding coordinates:
 C9(H9)
2.d X=CH2 refined with riding coordinates:
 C10(H10A,H10B)
2.e Idealised Me refined as rotating group:
 C7(H7A,H7B,H7C), C8(H8A,H8B,H8C)
2.f Idealised tetrahedral OH refined as rotating group with stretchable bonds:
 O2(H2), O4(H4)
;
_shelx_res_file
;
    baran744.res created by SHELXL-2014/7

TITL baran744_a.res in P3(1)
REM Old TITL Baran744 in P3(2)
REM SHELXT solution in P3(1)
REM R1 0.100, Rweak 0.034, Alpha 0.005, Orientation as input
REM Flack x = 0.106 ( 0.046 ) from Parsons' quotients
REM Formula found by SHELXT: C12 O5
CELL 1.54178 9.3492 9.3492 13.5555 90 90 120
ZERR 3 0.0001 0.0001 0.0002 0 0 0
LATT -1
SYMM -Y,+X-Y,0.333+Z
SYMM +Y-X,-X,0.667+Z
SFAC C H O
UNIT 39 60 12
EQIV $1 1-Y,+X-Y,0.333+Z
EQIV $2 1+Y-X,1-X,-0.333+Z

L.S. 10
PLAN  5
SIZE 0.14 0.14 0.14
TEMP -173.15
HTAB O2 O3_$1
HTAB O4 O1_$2
BOND $H
list 4
fmap 2 53
acta
REM <olex2.extras>
REM <HklSrc "%.\\Baran744.hkl">
REM </olex2.extras>

WGHT    0.040100    0.085800
EXTI    0.002378
FVAR       1.20519
O1    3    0.530846    0.525294    0.650650    11.00000    0.03502    0.02468 =
         0.02259    0.00357    0.00768    0.01792
O2    3    0.602842    0.378499    0.553354    11.00000    0.03947    0.02215 =
         0.02562    0.00402    0.00880    0.01866
AFIX 148
H2    2    0.544976    0.299804    0.596375    11.00000   -1.50000
AFIX   0
O3    3    0.705008    0.559714    0.349507    11.00000    0.03329    0.04169 =
         0.02202   -0.00480   -0.00207    0.02610
O4    3    0.921281    0.629089    0.448489    11.00000    0.02499    0.04312 =
         0.03212   -0.01236   -0.00288    0.02046
AFIX 148
H4    2    0.950022    0.579630    0.400515    11.00000   -1.50000
AFIX   0
C1    1    0.617691    0.759437    0.487610    11.00000    0.01996    0.01763 =
         0.01921    0.00023    0.00059    0.00915
AFIX  13
H1    2    0.569401    0.771731    0.550686    11.00000   -1.20000
AFIX   0
C2    1    0.473583    0.677314    0.413780    11.00000    0.02344    0.02299 =
         0.02113   -0.00078   -0.00139    0.01201
AFIX  13
H2A   2    0.520015    0.674465    0.347827    11.00000   -1.20000
AFIX   0
C3    1    0.391963    0.784056    0.404923    11.00000    0.02687    0.03058 =
         0.02914    0.00011   -0.00306    0.01719
AFIX  23
H3A   2    0.299799    0.732095    0.357101    11.00000   -1.20000
H3B   2    0.345011    0.787670    0.469717    11.00000   -1.20000
AFIX   0
C4    1    0.512014    0.960012    0.371584    11.00000    0.03719    0.03149 =
         0.03918    0.01034    0.00028    0.02102
AFIX  13
H4A   2    0.553067    0.955371    0.304208    11.00000   -1.20000
AFIX   0
C5    1    0.659467    1.039544    0.441456    11.00000    0.03339    0.02105 =
         0.04339    0.00540    0.00252    0.01445
AFIX  23
H5A   2    0.621638    1.054557    0.506845    11.00000   -1.20000
H5B   2    0.740465    1.150220    0.415949    11.00000   -1.20000
AFIX   0
C6    1    0.745570    0.936667    0.453929    11.00000    0.02491    0.01999 =
         0.02751    0.00327    0.00368    0.01014
AFIX  13
H6    2    0.792020    0.930004    0.388757    11.00000   -1.20000
AFIX   0
C7    1    0.343985    0.500168    0.441672    11.00000    0.02416    0.02446 =
         0.03070   -0.00120   -0.00686    0.00958
AFIX 137
H7A   2    0.305263    0.498520    0.509070    11.00000   -1.50000
H7B   2    0.393262    0.429224    0.437872    11.00000   -1.50000
H7C   2    0.250531    0.459449    0.395916    11.00000   -1.50000
AFIX   0
C8    1    0.424680    1.061295    0.365837    11.00000    0.04951    0.03836 =
         0.08218    0.01011   -0.01155    0.02876
AFIX 137
H8A   2    0.336042    1.012289    0.316713    11.00000   -1.50000
H8B   2    0.504343    1.174989    0.346669    11.00000   -1.50000
H8C   2    0.377737    1.061459    0.430449    11.00000   -1.50000
AFIX   0
C9    1    0.884957    1.021267    0.526319    11.00000    0.03017    0.01927 =
         0.04003   -0.00182   -0.00307    0.00828
AFIX  43
H9    2    0.857381    1.037608    0.591192    11.00000   -1.20000
AFIX   0
C10   1    1.041818    1.074735    0.507858    11.00000    0.02916    0.03580 =
         0.06272    0.00193   -0.00494    0.00659
AFIX  93
H10A  2    1.075070    1.061026    0.443989    11.00000   -1.20000
H10B  2    1.121859    1.127060    0.558394    11.00000   -1.20000
AFIX   0
C11   1    0.706282    0.661687    0.513383    11.00000    0.02043    0.01962 =
         0.01896    0.00008    0.00035    0.00993
AFIX  13
H11   2    0.803638    0.738249    0.554503    11.00000   -1.20000
AFIX   0
C12   1    0.602101    0.513352    0.578730    11.00000    0.02248    0.02080 =
         0.01909    0.00026   -0.00173    0.01204
C13   1    0.776538    0.612158    0.427746    11.00000    0.02190    0.01927 =
         0.02171    0.00163    0.00264    0.01016
HKLF 4

REM  baran744_a.res in P3(1)
REM R1 =  0.0253 for    2579 Fo > 4sig(Fo)  and  0.0256 for all    2604 data
REM    161 parameters refined using      1 restraints

END

WGHT      0.0401      0.0858

REM Highest difference peak  0.216,  deepest hole -0.120,  1-sigma level  0.027
Q1    1   0.6597  0.7012  0.4936  11.00000  0.05    0.22
Q2    1   0.6823  0.8449  0.4679  11.00000  0.05    0.16
Q3    1   0.6462  0.5927  0.5353  11.00000  0.05    0.15
Q4    1   0.4253  0.7282  0.4124  11.00000  0.05    0.15
Q5    1   0.7404  0.6455  0.4727  11.00000  0.05    0.14
;
_shelx_res_checksum              21654
_shelx_hkl_file
;
  -1   1   0  731.33   23.20
   0  -1   0  775.32   23.20
   0  -1   0  758.22   23.90
   1   0   0  794.32   23.30
   1   0   0  759.02   23.40
   1  -1   0  773.62   23.80
   1  -1   0  829.92   23.50
   0   1   0  806.42   23.50
  -1   0   0  828.32   23.80
  -2   1   0   75.69    3.60
   1   1   0   77.49    3.40
   1  -2   0   81.09    4.20
  -1   2   0   76.29    3.40
  -1   2   0   72.99    2.50
   2  -1   0   77.49    3.50
  -1  -1   0   82.49    3.60
   2  -1   0   78.09    3.40
  -1  -1   0   74.59    3.60
   2   0   0 2214.58   65.09
   2   0   0 2133.69   68.59
  -2   2   0 2166.78   66.69
   0  -2   0 2182.98   65.69
   0  -2   0 2265.77   66.19
   0   2   0 2169.98   64.99
   2  -2   0 2116.99   65.09
   2  -2   0 2286.97   65.99
  -2   0   0 2210.68   65.69
  -3   1   0 1042.90   33.50
   2  -3   0 1026.40   34.30
   1   2   0 1097.69   32.90
  -1  -2   0 1000.10   32.60
   3  -1   0 1144.59   33.10
  -2   3   0  994.00   32.80
  -1  -2   0 1151.68   33.10
  -1  -2   0 1077.59   33.80
  -2   3   0 1030.30   31.30
   3  -1   0 1066.09   32.20
   2   1   0 1082.29   34.60
   1  -3   0 1168.48   36.50
  -3   2   0 1123.39   34.80
   1  -3   0 1102.39   34.20
  -2  -1   0 1035.10   34.20
  -2  -1   0 1215.28   35.60
  -2  -1   0 1174.48   34.90
   3  -2   0 1104.29   34.80
  -1   3   0 1125.59   34.80
   3  -2   0 1135.49   35.00
   3   0   0  294.67   11.20
   3   0   0  320.27   10.50
   0  -3   0  301.17   11.00
  -3   3   0  305.27   10.70
   0  -3   0  331.87   10.60
   0  -3   0  330.67   12.80
  -3   0   0  330.17   12.30
   0   3   0  310.97   11.30
   3  -3   0  319.97   12.40
   3  -3   0  316.57   11.50
  -3   0   0  275.77   10.30
   3  -4   0 1770.22   56.29
  -4   1   0 1764.72   55.09
   1   3   0 1734.33   53.89
  -1  -3   0 1825.72   53.79
   4  -1   0 1667.63   53.89
  -3   4   0 1810.82   54.29
  -1  -3   0 1719.33   55.49
  -1  -3   0 1792.52   53.89
   2  -4   0    8.50    1.20
   2  -4   0   12.30    2.40
  -4   2   0    8.60    1.70
   2   2   0    7.30    1.60
  -2   4   0    8.40    1.70
   4  -2   0   11.80    1.70
  -2  -2   0    9.90    1.90
   4  -2   0    9.20    1.40
  -2  -2   0    8.10    1.30
  -2  -2   0   10.00    1.70
   3   1   0  196.48    8.20
  -4   3   0  189.78    8.10
   1  -4   0  197.08   10.00
   1  -4   0  184.58    7.70
   4  -3   0  208.48    8.50
  -3  -1   0  178.38    7.50
   4  -3   0  197.68    8.70
  -3  -1   0  195.38    9.10
  -1   4   0  183.38    8.20
   0  -4   0 1298.57   42.50
   0  -4   0 1335.17   39.90
   4   0   0 1262.27   39.90
   0   4   0 1287.37   40.10
   4  -4   0 1278.37   41.70
  -4   0   0 1208.18   41.20
  -4   0   0 1153.18   38.40
   1   4   0  561.74   20.90
  -5   1   0  573.64   22.40
   4  -5   0  618.64   23.70
  -4   5   0  594.64   21.50
  -1  -4   0  617.94   21.10
  -1  -4   0  567.44   22.90
   5  -1   0  597.84   21.10
   2   3   0  137.49    6.90
   3  -5   0  128.29    8.60
  -5   2   0  113.89    7.20
  -3   5   0  130.49    7.00
  -2  -3   0  132.59    6.70
  -2  -3   0  134.39    7.10
  -2  -3   0  136.39    7.80
   5  -2   0  134.49    7.00
   3   2   0  152.38    7.60
   2  -5   0  166.78   10.00
   2  -5   0  158.48    6.90
  -5   3   0  140.39    7.70
  -3  -2   0  146.39    7.10
  -3  -2   0  154.38    8.30
   5  -3   0  157.48    7.80
  -2   5   0  157.68    7.80
   1  -5   0  557.34   23.20
   1  -5   0  589.04   19.90
   4   1   0  574.34   20.30
  -4  -1   0  549.95   19.20
   5  -4   0  562.34   20.60
  -1   5   0  553.64   20.40
  -4  -1   0  554.44   21.60
   0  -5   0  168.48    8.20
   0  -5   0  133.09    9.60
  -5   5   0  167.38    8.80
   5   0   0  162.88    8.30
   0   5   0  171.28    8.60
  -5   0   0  145.99    9.20
   5  -5   0  157.88    9.50
   5  -6   0    6.10    2.60
  -6   1   0    8.30    2.70
   1   5   0    7.00    2.20
  -1  -5   0    5.30    1.80
   6  -1   0    9.40    2.50
  -1  -5   0    8.50    2.90
  -5   6   0    5.90    2.20
  -6   2   0   48.40    5.00
   4  -6   0   51.99    6.00
   2   4   0   47.20    4.20
  -4   6   0   50.39    4.50
  -2  -4   0   46.50    4.20
   6  -2   0   46.30    4.30
   3   3   0  349.07   15.00
  -6   3   0  359.16   15.90
   3  -6   0  389.86   18.70
   6  -3   0  358.16   15.30
  -3  -3   0  393.06   16.20
  -3   6   0  367.96   15.50
  -3  -3   0  398.36   15.10
   4   2   0 1631.94   52.09
   2  -6   0 1570.74   56.29
   2  -6   0 1676.03   51.09
   6  -4   0 1643.54   52.49
  -4  -2   0 1611.34   51.09
  -2   6   0 1603.94   52.49
   1  -6   0  910.81   36.70
   5   1   0  945.31   32.70
   1  -6   0 1001.40   32.30
  -1   6   0  911.71   32.90
  -5  -1   0  962.90   34.90
   0  -6   0   13.20    1.60
   6   0   0   14.70    2.40
   0  -6   0   19.70    1.90
   6   0   0   15.40    1.50
   0  -6   0   16.60    2.90
  -6   6   0   12.20    3.20
   6   0   0   15.30    3.20
   0  -6   0   13.40    4.00
   6  -6   0   15.00    1.60
   6  -6   0   16.10    1.60
   6  -6   0   18.50    1.60
  -6   0   0   14.90    3.70
   6  -6   0   15.20    1.50
   6  -6   0   18.10    1.70
   0   6   0   14.00    3.20
   6  -7   0   14.10    1.70
   6  -7   0   15.20    1.70
   6  -7   0   15.40    1.50
   6  -7   0   14.30    1.60
   6  -7   0   14.10    2.00
   6  -7   0   12.00    1.40
   1   6   0   12.40    1.50
   7  -1   0   13.50    1.50
  -1  -6   0   13.80    1.70
   7  -1   0   13.90    1.50
  -1  -6   0   13.60    2.90
  -1  -6   0   11.60    1.60
   7  -1   0   10.70    2.00
   7  -1   0   12.20    1.50
   5  -7   0   25.50    1.90
   5  -7   0   30.70    5.30
   2   5   0   26.40    3.70
   5  -7   0   28.50    2.10
   2   5   0   23.90    1.90
   5  -7   0   28.10    2.60
   5  -7   0   26.00    2.00
   5  -7   0   25.90    2.00
   5  -7   0   29.10    1.90
   7  -2   0   24.50    3.70
   7  -2   0   27.30    2.00
  -2  -5   0   31.70    3.90
   7  -2   0   27.30    2.00
   7  -2   0   26.30    2.00
  -2  -5   0   22.50    2.00
   7  -2   0   21.60    2.40
   7  -2   0   30.10    2.80
  -7   3   0   13.70    3.40
   4  -7   0   15.20    1.70
   4  -7   0   15.50    2.00
   4  -7   0   17.40    1.60
   4  -7   0   15.00    2.10
   4  -7   0   15.00    1.40
   4  -7   0   15.80    1.50
   3   4   0   14.20    3.00
   4  -7   0   14.90    4.30
   7  -3   0   15.80    1.70
   7  -3   0   19.50    1.80
  -4   7   0   16.90    3.50
   7  -3   0   19.70    2.10
  -3  -4   0   16.80    1.60
   7  -3   0   11.80    2.00
   7  -3   0   14.10    1.50
   7  -3   0   15.40    1.60
  -3  -4   0   14.70    2.80
   7  -3   0   13.50    3.10
   3  -7   0  335.27   18.40
   3  -7   0  295.87   11.60
   3  -7   0  305.87   10.40
   3  -7   0  291.17   10.20
   4   3   0  293.77   13.80
   3  -7   0  307.37   10.00
   3  -7   0  319.67   10.30
   3  -7   0  306.47   11.50
   4   3   0  303.87   10.30
   7  -4   0  310.67   14.30
  -4  -3   0  300.27   13.30
   7  -4   0  311.17   10.30
   7  -4   0  301.27   10.20
  -4  -3   0  297.37   13.00
  -3   7   0  294.27   14.30
   7  -4   0  303.97   10.40
   7  -4   0  294.77   10.90
   7  -4   0  314.97   10.40
   2  -7   0  339.27   12.40
   2  -7   0  349.37   16.00
   5   2   0  325.07   11.20
   5   2   0  324.57   11.20
   2  -7   0  329.37   12.70
   2  -7   0  332.87   11.20
   2  -7   0  344.47   11.30
   2  -7   0  331.37   11.40
   2  -7   0  333.87   10.90
   5   2   0  337.77   11.20
   7  -5   0  328.87   10.80
  -5  -2   0  336.37   12.80
  -5  -2   0  341.27   14.30
   7  -5   0  338.47   11.40
  -5  -2   0  330.97   18.70
   7  -5   0  336.77   11.20
   7  -5   0  342.17   11.30
   7  -5   0  340.27   11.90
   7  -5   0  333.47   11.20
  -5  -2   0  327.27   13.80
   6   1   0   46.00    2.60
   6   1   0   42.90    2.60
   1  -7   0   48.30    2.70
   1  -7   0   44.90    2.40
   1  -7   0   48.40    2.80
   6   1   0   46.60    2.70
   1  -7   0   47.20    2.90
   1  -7   0   45.70    4.50
   1  -7   0   55.29    3.50
   1  -7   0   44.60    3.30
  -6  -1   0   43.70    3.80
   7  -6   0   43.10    2.40
   7  -6   0   46.80    2.80
   7  -6   0   46.20    2.80
   7  -6   0   45.10    2.60
   7  -6   0   45.90    2.70
   7   0   0  185.38    7.00
   0  -7   0  180.88    7.80
   7   0   0  173.88    6.90
   0  -7   0  187.68   10.40
   0  -7   0  186.98    7.10
   7   0   0  189.28    7.00
   0  -7   0  190.48    7.10
   0  -7   0  200.38    8.30
   7   0   0  184.88    7.50
   0  -7   0  186.18    6.60
   0   7   0  174.28    7.00
   7  -7   0  183.68    6.70
  -7   0   0  178.58    8.60
   7  -7   0  191.98    7.20
   7  -7   0  181.58    7.00
   7  -7   0  183.08    7.20
   7  -7   0  191.98    7.10
  -7   0   0  210.68    9.50
   7  -8   0   19.50    1.80
   7  -8   0   19.00    2.00
   1   7   0   16.60    1.90
   7  -8   0   18.30    2.20
   7  -8   0   18.10    2.40
   7  -8   0   18.00    2.00
  -8   1   0   15.10    2.80
   7  -8   0   22.80    2.30
  -1  -7   0   15.20    3.30
   8  -1   0   16.90    1.80
  -1  -7   0   15.70    2.00
   8  -1   0   19.50    2.00
   8  -1   0   20.90    1.90
   8  -1   0   21.40    2.20
  -8   2   0  161.98    8.10
   6  -8   0  166.48    6.50
   6  -8   0  157.58    6.30
   6  -8   0  170.38    6.40
   2   6   0  164.28    6.40
   6  -8   0  167.98    7.60
   6  -8   0  170.88    6.70
   6  -8   0  174.28    6.30
   8  -2   0  169.88    6.40
  -2  -6   0  166.38    6.50
   8  -2   0  169.18    6.50
  -2  -6   0  166.18    9.90
   8  -2   0  160.88    6.40
   8  -2   0  161.18    7.10
   5  -8   0   26.60    2.10
   5  -8   0   28.00    2.10
   5  -8   0   28.00    2.10
   5  -8   0   26.00    2.60
   3   5   0   25.70    2.10
   5  -8   0   28.00    2.30
   5  -8   0   30.00    2.30
   5  -8   0   28.30    3.00
   8  -3   0   26.20    2.10
  -3  -5   0   32.20    4.10
   8  -3   0   25.80    2.60
   8  -3   0   29.50    2.20
  -3  -5   0   27.30    2.10
  -3  -5   0   25.90    3.40
   8  -3   0   29.70    2.00
   8  -3   0   27.80    2.10
  -8   4   0  135.79    6.10
   4  -8   0  129.09    6.40
   4  -8   0  117.69    4.90
   4  -8   0  124.49    5.10
   4   4   0  122.79    5.10
   4  -8   0  118.19    5.20
   4  -8   0  119.39    6.30
   4  -8   0  115.89    5.00
   4   4   0  150.68    6.90
  -4  -4   0  114.69    7.50
   8  -4   0  123.39    5.10
   8  -4   0  124.99    5.90
   8  -4   0  125.49    5.20
  -4  -4   0  110.49    7.70
   8  -4   0  118.39    5.00
   8  -4   0  119.59    5.10
   3  -8   0  263.27    9.30
   5   3   0  268.17    9.30
   5   3   0  269.67    9.40
   3  -8   0  271.37    9.10
   3  -8   0  268.57   10.70
   3  -8   0  261.67   10.90
   3  -8   0  268.47    9.50
   3  -8   0  260.87    9.30
   8  -5   0  258.67    9.30
   8  -5   0  256.07    9.40
   8  -5   0  268.07    9.30
   8  -5   0  272.17    9.40
   8  -5   0  275.27   10.20
  -5  -3   0  261.87   12.60
  -5  -3   0  250.57   12.20
   6   2   0   42.70    2.70
   6   2   0   41.80    2.60
   2  -8   0   43.10    3.70
   2  -8   0   42.50    2.40
   2  -8   0   41.40    2.90
   2  -8   0   43.50    3.50
   2  -8   0   46.40    2.70
   2  -8   0   43.60    2.80
   8  -6   0   44.00    2.40
   8  -6   0   40.10    2.70
   8  -6   0   43.30    2.70
   8  -6   0   43.50    2.70
   8  -6   0   43.30    2.60
  -6  -2   0   41.10    3.60
   8  -6   0   46.50    3.30
  -6  -2   0   42.30    4.60
   1  -8   0   50.39    2.60
   7   1   0   50.79    2.90
   1  -8   0   49.20    3.60
   1  -8   0   48.60    2.90
   1  -8   0   47.10    4.80
   1  -8   0   53.29    3.20
   7   1   0   49.00    2.80
   1  -8   0   46.40    3.80
   8  -7   0   50.29    3.10
  -7  -1   0   51.59    5.00
  -7  -1   0   50.79    4.20
  -1   8   0   47.00    3.00
   8  -7   0   49.50    2.90
   8  -7   0   51.89    3.10
   8  -7   0   49.70    2.70
   8  -7   0   53.39    3.20
   0  -8   0   74.29    4.40
   8   0   0   63.39    3.40
   0  -8   0   73.49    4.00
   0  -8   0   60.99    3.40
   8   0   0   61.99    3.30
   8  -8   0   65.89    3.20
   8  -8   0   64.19    3.40
  -8   0   0   66.49    4.80
   8  -8   0   65.49    3.50
   8  -8   0   65.79    3.60
   8  -8   0   63.99    3.40
   0   8   0   62.59    3.40
   8  -9   0    4.70    1.30
  -9   1   0    2.80    1.30
   8  -9   0    4.20    1.00
   8  -9   0    4.60    1.20
   8  -9   0    4.60    1.20
   9  -1   0    3.40    1.10
  -1  -8   0    3.10    1.00
   9  -1   0    3.50    0.90
   7  -9   0  293.67   10.10
   7  -9   0  293.27    9.60
  -9   2   0  280.67   11.50
   7  -9   0  287.57    9.90
   7  -9   0  287.67    9.90
   7  -9   0  279.67   10.80
   7  -9   0  286.67    9.80
   9  -2   0  278.97    9.70
   9  -2   0  272.47    9.80
   9  -2   0  284.27   10.50
   9  -2   0  293.27    9.80
   6  -9   0   15.50    1.90
  -9   3   0   15.00    2.90
   6  -9   0   14.60    1.80
   6  -9   0   14.20    1.60
   6  -9   0   17.20    1.80
   6  -9   0   14.20    2.30
   6  -9   0   17.90    2.40
   9  -3   0   14.90    1.70
   9  -3   0   14.80    1.70
   9  -3   0   14.20    1.70
   9  -3   0    9.70    1.80
   4   5   0   33.20    2.40
   5  -9   0   37.20    2.50
   5  -9   0   34.00    2.40
   5  -9   0   33.80    3.10
   5  -9   0   35.90    2.70
   5  -9   0   35.80    3.20
   5  -9   0   35.30    2.30
  -4  -5   0   32.70    4.00
   9  -4   0   37.60    2.30
   9  -4   0   34.10    2.40
   9  -4   0   31.20    3.10
   9  -4   0   33.00    2.30
  -4  -5   0   31.90    4.30
   9  -4   0   31.40    2.30
   4  -9   0   41.60    2.50
   4  -9   0   41.00    3.60
   4  -9   0   43.80    3.60
   4  -9   0   45.10    2.80
   5   4   0   45.60    2.70
   5   4   0   41.90    2.60
   4  -9   0   42.20    2.90
   4  -9   0   40.80    2.70
  -5  -4   0   40.70    4.40
   9  -5   0   40.70    2.70
   9  -5   0   41.20    2.60
   9  -5   0   45.20    2.70
   9  -5   0   45.60    2.60
   9  -5   0   41.30    3.20
   3  -9   0   27.90    2.50
   6   3   0   25.50    2.10
   3  -9   0   29.40    2.30
   6   3   0   22.50    2.10
   3  -9   0   23.30    2.80
   3  -9   0   24.40    2.20
   3  -9   0   23.60    2.80
   3  -9   0   26.10    1.90
  -6  -3   0   24.40    3.80
   9  -6   0   26.30    2.30
   9  -6   0   25.50    2.10
   9  -6   0   23.20    2.60
   9  -6   0   24.50    2.20
   9  -6   0   24.80    2.10
   2  -9   0   85.99    4.90
   2  -9   0   81.19    5.00
   2  -9   0   86.59    3.60
   7   2   0   83.49    3.80
   2  -9   0   89.79    4.10
   2  -9   0   86.09    4.10
   7   2   0   83.99    4.00
   9  -7   0   83.59    3.90
  -7  -2   0   85.29    5.10
   9  -7   0   83.49    4.10
   9  -7   0   83.69    3.60
   9  -7   0   84.99    4.00
  -7  -2   0   82.39    6.30
  -2   9   0   85.69    4.10
   9  -7   0   89.99    4.20
   1  -9   0   15.50    2.20
   1  -9   0    9.90    1.70
   8   1   0   10.40    1.50
   1  -9   0    9.40    1.50
   1  -9   0   11.30    2.20
   8   1   0   10.50    1.50
   1  -9   0   14.10    1.30
  -1   9   0   11.60    1.70
   9  -8   0   10.20    1.70
   9  -8   0   15.90    2.10
   9  -8   0   11.20    1.80
   9  -8   0   11.30    1.40
   9  -8   0    9.00    1.50
  -8  -1   0   10.00    2.80
  -8  -1   0   11.50    2.30
   0  -9   0   96.39    4.90
   9   0   0   95.59    4.00
   9   0   0   95.99    3.90
   0  -9   0   92.29    4.00
   9  -9   0   96.29    4.10
   9  -9   0   90.89    3.70
  -9   0   0   99.09    5.30
  -9   0   0  111.49    5.60
   9  -9   0   97.79    4.20
   9  -9   0   94.09    4.00
   9  -9   0   97.89    4.30
   9 -10   0   17.20    1.60
   9 -10   0   19.40    1.70
   9 -10   0   18.60    1.50
   1   9   0   17.20    1.50
   9 -10   0   20.50    1.30
   9 -10   0   19.30    1.60
 -10   1   0   18.80    2.10
  10  -1   0   18.10    1.30
  10  -1   0   18.10    1.50
   2   8   0   18.30    1.70
 -10   2   0   19.90    2.10
   8 -10   0   16.90    1.70
   8 -10   0   17.10    1.50
 -10   2   0   18.10    2.40
   8 -10   0   20.70    2.00
   8 -10   0   18.30    1.70
  10  -2   0   19.90    1.70
  10  -2   0   20.00    1.60
   7 -10   0   83.89    3.90
   7 -10   0   81.49    3.40
   7 -10   0   75.99    3.60
   7 -10   0   76.09    3.60
 -10   3   0   78.19    4.70
   3   7   0   76.69    3.50
   7 -10   0   76.29    4.30
  10  -3   0   79.99    3.60
  10  -3   0   75.19    3.40
  10  -3   0   76.29    3.30
   6 -10   0   18.60    2.00
   6 -10   0   16.90    1.60
   6 -10   0   16.10    2.50
   6 -10   0   16.30    1.80
   6 -10   0   24.10    2.40
   4   6   0   19.00    1.80
   4   6   0   17.20    1.80
  -4  -6   0   17.00    2.60
  10  -4   0   19.80    1.80
  10  -4   0   20.20    1.70
  10  -4   0   18.00    1.70
   5 -10   0   14.60    2.00
   5   5   0   12.30    1.60
   5 -10   0   13.60    2.00
   5 -10   0    9.20    1.40
   5 -10   0   11.20    2.00
   5 -10   0    8.70    2.00
   5 -10   0   11.40    1.70
   5   5   0   10.50    1.50
  -5  -5   0    9.80    2.50
  10  -5   0   11.30    1.60
  10  -5   0   11.60    1.50
  10  -5   0   12.60    1.70
  10  -5   0   11.60    1.50
   6   4   0   53.09    2.70
   4 -10   0   60.39    3.10
   4 -10   0   56.99    2.70
   4 -10   0   54.59    2.90
   4 -10   0   50.79    3.70
   6   4   0   54.59    2.90
   4 -10   0   52.19    3.70
  10  -6   0   55.79    2.90
  -6  -4   0   50.79    4.60
  10  -6   0   53.89    2.90
  10  -6   0   56.09    2.90
  10  -6   0   53.59    2.90
   3 -10   0   86.69    4.70
   3 -10   0   85.79    4.80
   3 -10   0   95.19    4.00
 -10   7   0   84.29    4.20
   3 -10   0   88.19    3.50
   3 -10   0   89.59    3.90
   7   3   0   88.99    3.80
   7   3   0   86.09    3.60
  -3  10   0   86.69    3.90
  10  -7   0   90.09    3.90
  -7  -3   0   84.49    5.80
  10  -7   0   89.09    3.90
  10  -7   0   86.79    3.90
  10  -7   0   87.59    3.80
   2 -10   0   11.50    1.10
   8   2   0    7.60    1.10
   2 -10   0    8.20    1.50
   8   2   0    8.70    1.30
   2 -10   0   10.90    1.70
   2 -10   0    7.10    1.80
  -2  10   0    7.80    1.30
  10  -8   0    7.20    1.40
  -8  -2   0    6.10    1.60
  10  -8   0   11.20    1.60
  10  -8   0    6.40    1.10
  10  -8   0    8.10    1.40
  -8  -2   0    7.20    2.30
   1 -10   0    5.60    1.40
   1 -10   0    3.30    0.80
   9   1   0    4.70    0.90
  10  -9   0    4.20    1.00
  -9  -1   0    2.80    0.80
  10  -9   0    2.50    0.70
  10  -9   0    4.10    0.90
  10  -9   0    3.60    0.70
  -9  -1   0    5.00    1.70
  10  -9   0    3.70    0.90
   8 -11   0  108.09    4.20
   8 -11   0  110.69    3.90
   3   8   0  115.59    4.00
   8 -11   0  107.99    4.00
   8 -11   0  120.39    4.10
  11  -3   0  109.09    4.10
   7 -11   0   82.09    3.10
   7 -11   0   75.49    3.20
   7 -11   0   76.69    3.70
   7 -11   0   81.89    3.30
   7 -11   0   78.09    3.30
   4   7   0   80.49    3.20
  11  -4   0   76.39    3.00
  11  -4   0   74.59    3.10
   6 -11   0   72.29    3.10
   6 -11   0   67.69    2.80
   6 -11   0   69.69    3.00
 -11   5   0   74.09    3.50
   6 -11   0   68.09    3.60
   6 -11   0   69.89    3.00
   5   6   0   70.69    3.00
  11  -5   0   66.69    2.90
  11  -5   0   65.09    3.60
  -5  -6   0   59.69    3.80
  11  -5   0   69.59    2.80
   6   5   0   26.00    1.70
 -11   6   0   26.40    2.10
   5 -11   0   25.80    1.60
   5 -11   0   24.50    2.10
   5 -11   0   26.00    1.80
   5 -11   0   25.80    2.30
   5 -11   0   26.40    1.80
  11  -6   0   27.90    1.60
  11  -6   0   26.70    1.60
  -6  -5   0   22.80    2.50
  11  -6   0   24.80    1.60
   4 -11   0    8.90    1.00
   4 -11   0    5.50    0.80
   4 -11   0    7.10    1.20
   4 -11   0    7.50    1.50
   7   4   0    7.10    1.10
 -11   7   0    5.20    1.10
   4 -11   0    6.10    1.40
  11  -7   0    7.10    1.10
  11  -7   0    8.30    1.10
  -7  -4   0    6.70    1.90
  11  -7   0    9.20    1.00
  -4  11   0    5.50    0.90
  11  -7   0    4.00    0.80
   8   3   0   11.70    1.20
   3 -11   0    8.30    1.30
  11  -8   0   10.70    1.10
  11  -8   0    9.40    1.30
  -8  -3   0    8.70    1.80
  11  -8   0    9.40    1.10
   0   0  -1    0.60    0.10
   0   0  -1    0.20    0.20
   0   1  -1 6697.83  185.48
   1  -1  -1 5691.13  180.98
   1  -1  -1 6567.74  186.18
  -1   0  -1 6451.95  188.78
   1  -1  -1 6195.68  187.28
   1   0   1 5903.31  189.08
   0  -1   1 5846.21  181.98
   0  -1   1 5231.98  182.28
   1   0   1 6043.60  181.18
   0  -1  -1  343.27   11.20
   1   0  -1  383.86   11.40
   0  -1  -1  360.16   11.90
   1   0  -1  341.17   10.70
  -1   1  -1  349.57   11.00
   0   1   1  361.66   10.90
  -1   0   1  365.26   10.60
   1  -1   1  365.36   12.00
  -1   0   1  347.97   11.50
  -1  -1  -1 1281.97   39.30
   2  -1  -1 1396.66   39.20
  -1   2  -1 1328.17   39.10
   2  -1  -1 1247.48   39.30
  -1  -1  -1 1193.38   39.60
   1   1   1 1296.07   38.60
   1  -2   1 1348.77   40.30
  -2   1   1 1288.07   39.30
  -2  -1  -1  211.48    8.20
  -1   3  -1  238.48    8.90
   3  -2  -1  223.18    8.40
   3  -2  -1  249.58    9.00
  -2  -1  -1  245.58    9.40
   1  -3   1  231.78    8.20
  -3   2   1  234.98    8.90
   1  -3   1  221.98   10.00
   2   1   1  211.58    8.30
   2   1   1  239.58    9.20
  -2   0  -1 2270.37   64.09
   2  -2  -1 2259.67   63.39
   0   2  -1 1945.21   63.19
   2  -2  -1 2093.79   63.79
   0  -2   1 2209.48   63.89
  -2   2   1 2058.79   62.99
   0  -2   1 1925.11   63.99
   2   0   1 2277.77   63.69
   2   0   1 2122.79   62.89
   1  -2  -1 3311.47  102.89
  -2   1  -1 3244.08  102.59
   1   1  -1 3221.08   99.49
   1  -2  -1 3188.98  101.69
  -1  -1   1 3206.08   98.99
   2  -1   1 3426.26  103.09
  -1  -1   1 3359.66  105.09
  -1   2   1 3361.06  100.89
   2  -1   1 3325.17  100.59
   0  -2  -1  752.12   24.90
   0  -2  -1  771.32   23.50
   2   0  -1  763.82   23.90
  -2   2  -1  711.93   23.20
   0   2   1  731.03   23.50
   2  -2   1  794.62   25.00
  -2   0   1  816.52   24.50
   2  -2   1  780.52   23.80
  -2   3  -1  463.85   16.30
  -1  -2  -1  450.55   15.90
   3  -1  -1  492.45   16.40
  -1  -2  -1  515.35   16.60
  -1  -2  -1  531.65   17.60
  -3   1   1  461.55   16.80
   1   2   1  477.75   15.90
   2  -3   1  505.95   17.90
  -2   4  -1  573.24   19.30
  -2  -2  -1  545.75   18.60
  -2  -2  -1  602.74   20.40
   4  -2  -1  531.55   19.20
  -2  -2  -1  570.54   19.70
   2  -4   1  554.74   18.00
  -4   2   1  537.05   19.60
   2   2   1  547.75   18.60
   2  -4   1  563.44   21.30
  -3  -2  -1 1205.28   40.10
   5  -3  -1 1221.98   41.10
  -2   5  -1 1298.77   41.30
  -3  -2  -1 1345.47   42.30
   2  -5   1 1318.57   39.90
  -5   3   1 1237.98   41.40
   2  -5   1 1307.97   44.40
   3   2   1 1282.27   40.50
   4  -3  -1  576.64   19.80
  -3  -1  -1  570.24   18.80
  -3  -1  -1  596.94   20.80
   4  -3  -1  584.44   19.70
  -1   4  -1  579.54   19.90
   3   1   1  570.04   19.80
  -4   3   1  542.55   19.50
   3   1   1  556.74   19.20
   1  -4   1  576.84   21.80
   1  -4   1  566.54   19.00
   3  -3  -1 3190.38   97.99
  -3   0  -1 3481.85   98.39
   3  -3  -1 3282.77   97.19
   0   3  -1 3142.19   97.09
   0  -3   1 3336.57   98.79
   3   0   1 3320.97   97.09
   3   0   1 3299.07   96.79
  -3   3   1 3197.08   96.59
   0  -3   1 3294.37  100.09
   0  -3   1 3144.69   96.69
  -3   1  -1  763.22   24.40
   1   2  -1  791.62   23.90
   2  -3  -1  724.03   25.00
   3  -1   1  781.22   24.00
  -2   3   1  715.53   23.60
  -2   3   1  725.73   22.70
   3  -1   1  723.23   23.50
  -1  -2   1  773.02   23.70
  -1  -2   1  720.63   23.40
  -1  -2   1  702.53   24.10
   1  -3  -1 1947.21   60.49
   2   1  -1 1925.11   58.89
  -3   2  -1 1802.22   58.79
   1  -3  -1 1939.71   57.69
   1  -3  -1 1914.81   58.39
   3  -2   1 2009.70   58.79
  -2  -1   1 1915.21   58.29
  -2  -1   1 1861.71   58.29
  -2  -1   1 2177.68   59.69
  -1   3   1 1998.00   58.69
   3  -2   1 2034.60   59.79
   0  -3  -1  410.36   13.00
   3   0  -1  366.06   13.50
   0  -3  -1  393.16   15.10
  -3   3  -1  374.86   12.60
   0  -3  -1  368.96   13.10
   0   3   1  380.66   13.20
  -3   0   1  381.66   14.20
  -3   0   1  365.56   12.60
   3  -3   1  381.76   14.80
  -1  -3  -1  285.37   12.80
  -1  -3  -1  317.57   11.60
  -3   4  -1  308.37   11.80
  -1  -3  -1  283.27   11.20
   4  -1  -1  288.77   11.50
  -4   1   1  304.67   12.40
   1   3   1  282.87   11.10
   3  -4   1  314.27   13.50
  -3   5  -1  151.18    7.60
   5  -2  -1  142.89    7.50
  -2  -3  -1  142.89    8.50
  -2  -3  -1  155.38    7.80
  -2  -3  -1  144.19    7.10
   3  -5   1  144.69    9.30
  -5   2   1  143.39    8.10
   2   3   1  141.59    7.00
  -3  -3  -1  412.56   16.10
  -3   6  -1  430.26   17.10
  -3  -3  -1  435.26   17.60
   6  -3  -1  410.76   16.80
   3   3   1  421.86   16.30
  -6   3   1  380.36   17.10
   3  -6   1  427.66   20.10
   7  -4  -1  926.21   27.90
  -4  -3  -1  886.11   33.60
  -4  -3  -1  902.21   31.40
  -4  -3  -1  912.31   31.40
  -3   7  -1  920.61   32.90
   7  -4  -1  878.21   32.50
   7  -4  -1  877.81   27.90
   7  -4  -1  921.31   27.80
   7  -4  -1  929.51   27.90
   7  -4  -1  886.61   28.50
   3  -7   1  921.01   29.50
   3  -7   1  902.61   37.20
   4   3   1  897.31   27.80
   3  -7   1  911.91   27.50
   3  -7   1  902.51   29.10
   3  -7   1  901.91   27.80
   3  -7   1  956.70   28.10
   3  -7   1  929.91   27.80
   6  -4  -1  252.27   11.80
  -4  -2  -1  253.47   12.80
  -4  -2  -1  254.17   10.80
  -2   6  -1  245.58   11.80
   2  -6   1  234.88   14.10
  -6   4   1  231.28   11.70
   2  -6   1  255.07   10.60
   4   2   1  243.38   11.00
  -4  -1  -1   86.69    4.80
   5  -4  -1   92.89    5.80
  -1   5  -1   92.29    5.80
  -4  -1  -1   97.19    6.60
  -5   4   1   82.69    5.30
   1  -5   1   87.39    7.20
   1  -5   1   96.59    5.40
   4   1   1   93.29    5.40
   0   4  -1  424.56   15.70
  -4   0  -1  377.26   14.00
  -4   0  -1  450.25   17.00
   4  -4  -1  442.86   16.90
   4  -4  -1  444.56   15.80
   0  -4   1  442.66   17.60
   0  -4   1  417.16   15.20
  -4   4   1  396.86   14.50
   4   0   1  394.36   15.00
   3  -4  -1 1290.27   42.40
   1   3  -1 1296.77   40.60
  -4   1  -1 1238.48   41.40
  -1  -3   1 1316.37   40.30
  -3   4   1 1274.87   40.60
   4  -1   1 1290.37   40.30
  -1  -3   1 1351.26   40.10
  -1  -3   1 1250.97   41.60
   2  -4  -1  228.18   10.90
   2   2  -1  236.38    9.40
   2  -4  -1  225.58    8.50
  -4   2  -1  224.18    9.60
  -2  -2   1  225.28    9.40
  -2  -2   1  236.98    9.70
   4  -2   1  225.18    9.40
   4  -2   1  226.88    9.20
  -2   4   1  240.68    9.40
  -2  -2   1  204.08    8.80
   1  -4  -1  955.80   30.00
   3   1  -1  989.10   30.70
   1  -4  -1  920.81   32.80
  -4   3  -1  916.61   30.20
  -3  -1   1  924.31   29.70
  -1   4   1  959.80   30.40
  -3  -1   1  908.21   31.30
   4  -3   1  945.31   30.50
   4  -3   1  989.80   31.70
   4   0  -1 1072.39   34.50
   0  -4  -1 1087.09   36.90
  -4   4  -1 1080.49   34.60
   0  -4  -1 1031.00   33.90
   4  -4   1 1083.09   36.30
   0   4   1 1036.70   34.00
  -4   0   1  991.80   32.80
  -4   0   1 1119.69   35.90
  -1  -4  -1   24.20    2.80
  -1  -4  -1   22.30    3.50
   5  -1  -1   25.50    3.00
  -4   5  -1   23.40    3.00
  -5   1   1   20.40    3.10
   4  -5   1   25.80    3.80
   1   4   1   20.80    2.60
   6  -2  -1  434.96   17.40
  -2  -4  -1  440.56   19.20
  -4   6  -1  445.46   17.70
  -2  -4  -1  450.65   17.20
  -6   2   1  385.06   18.00
   4  -6   1  451.65   20.70
   2   4   1  417.26   16.60
   7  -3  -1   82.09    6.50
   7  -3  -1   86.99    3.70
   7  -3  -1   80.89    3.70
   7  -3  -1   82.69    4.80
   7  -3  -1   81.79    3.70
  -3  -4  -1   88.09    6.30
   7  -3  -1   78.69    4.30
  -4   7  -1   87.19    6.80
  -3  -4  -1   85.19    3.90
   7  -3  -1   82.79    3.80
  -3  -4  -1   94.39    5.80
   4  -7   1   82.59    4.70
   4  -7   1   82.59    3.90
   4  -7   1   79.89    3.70
   4  -7   1   84.19    3.50
   4  -7   1   78.99    4.60
   4  -7   1   80.59    3.70
  -7   3   1   71.79    6.80
   4  -7   1   89.99    8.80
   4  -7   1   82.09    3.70
   8  -4  -1 1239.28   38.40
  -4  -4  -1 1250.57   41.60
   8  -4  -1 1242.08   37.50
   8  -4  -1 1277.67   37.60
   8  -4  -1 1181.78   38.90
  -4  -4  -1 1244.28   42.00
   8  -4  -1 1256.97   37.70
   8  -4  -1 1219.08   37.50
   4   4   1 1220.78   37.50
   4  -8   1 1222.68   37.20
   4  -8   1 1291.27   39.30
   4  -8   1 1257.67   39.30
   4  -8   1 1240.28   37.50
   4  -8   1 1206.18   37.50
   4  -8   1 1235.08   37.70
   9  -5  -1   85.79    4.80
   9  -5  -1   89.99    4.10
   9  -5  -1   81.09    3.90
  -5  -4  -1   83.49    6.40
   9  -5  -1   87.79    4.10
   9  -5  -1   82.39    3.90
   4  -9   1   83.99    5.00
   5   4   1   84.79    4.00
   4  -9   1   84.59    4.00
   4  -9   1   83.59    3.70
   4  -9   1   83.29    5.10
   4  -9   1   86.39    4.10
   5   4   1   82.59    3.90
   4  -9   1   86.89    4.30
   8  -5  -1  448.46   13.90
   8  -5  -1  432.76   13.80
  -5  -3  -1  368.26   16.70
   8  -5  -1  430.46   14.00
  -5  -3  -1  417.76   17.50
   8  -5  -1  423.76   14.60
   8  -5  -1  431.86   13.90
   3  -8   1  422.96   13.80
   5   3   1  416.96   13.80
   3  -8   1  408.96   13.40
   3  -8   1  415.76   15.20
   3  -8   1  425.56   13.80
   3  -8   1  410.86   15.40
   3  -8   1  437.36   14.10
   5   3   1  394.16   13.70
   7  -5  -1   90.59    4.00
   7  -5  -1   91.29    4.10
  -5  -2  -1   88.09    5.10
  -5  -2  -1  102.69    6.10
   7  -5  -1   84.99    4.50
   7  -5  -1   88.19    4.00
   7  -5  -1   91.99    4.10
   2  -7   1   86.29    3.70
   2  -7   1   91.49    5.10
   2  -7   1   89.29    4.90
   2  -7   1   92.29    4.00
   2  -7   1   88.79    4.00
   5   2   1   88.79    4.00
   5   2   1   86.49    4.00
   2  -7   1   88.09    4.20
   6  -5  -1  110.59    7.40
  -1   6  -1  108.49    7.40
  -5  -1  -1  120.89    8.60
   1  -6   1  124.19    7.10
   5   1   1  109.49    6.80
   1  -6   1  122.19    9.70
   0   5  -1  358.76   14.70
  -5   0  -1  365.96   16.10
   5   0   1  354.46   14.10
   0  -5   1  311.07   16.20
   0  -5   1  360.56   14.20
   4  -5  -1  826.82   29.90
  -5   1  -1  742.83   28.40
   1   4  -1  792.92   27.50
  -4   5   1  825.52   27.80
  -1  -4   1  852.61   27.30
   5  -1   1  796.82   27.10
  -1  -4   1  772.42   29.10
   3  -5  -1  787.22   28.70
   2   3  -1  723.83   25.60
  -5   2  -1  720.13   26.40
  -2  -3   1  753.52   26.50
   5  -2   1  792.52   25.70
  -2  -3   1  732.43   25.60
  -2  -3   1  765.12   25.40
  -3   5   1  743.13   25.80
   3   2  -1  428.86   16.20
  -5   3  -1  410.36   16.10
   2  -5  -1  418.96   15.10
   2  -5  -1  440.46   18.90
  -3  -2   1  430.86   16.90
  -2   5   1  414.56   16.00
   5  -3   1  428.86   16.00
  -3  -2   1  423.66   15.40
   1  -5  -1 1645.14   50.19
   1  -5  -1 1549.74   54.09
   4   1  -1 1596.44   50.89
  -4  -1   1 1528.65   49.40
  -4  -1   1 1686.63   52.59
  -1   5   1 1630.24   50.69
   5  -4   1 1594.54   50.79
   0  -5  -1   83.79    5.50
   0  -5  -1   72.29    6.80
   5   0  -1   73.99    5.40
  -5   5  -1   78.09    5.70
   5  -5   1   81.19    6.70
   0   5   1   70.69    5.20
  -5   0   1   87.99    6.70
  -1  -5  -1  116.19    7.00
  -1  -5  -1   98.49    8.40
  -5   6  -1  106.89    7.20
   6  -1  -1  104.79    7.00
   1   5   1   96.29    6.50
   5  -6   1  105.09    8.60
  -6   1   1  103.09    7.80
   7  -2  -1   31.30    2.20
  -2  -5  -1   32.30    1.90
   7  -2  -1   31.70    3.00
  -2  -5  -1   35.50    4.10
  -2  -5  -1   25.70    2.10
   7  -2  -1   32.80    2.30
   7  -2  -1   31.60    2.00
   7  -2  -1   25.10    2.50
   7  -2  -1   29.60    2.00
   5  -7   1   31.50    2.30
   5  -7   1   31.60    2.10
   5  -7   1   30.20    2.80
   5  -7   1   32.40    2.00
   5  -7   1   32.20    2.10
   5  -7   1   31.50    2.20
   8  -3  -1   39.10    2.40
   8  -3  -1   33.80    3.00
   8  -3  -1   35.70    2.50
   8  -3  -1   37.50    3.40
   8  -3  -1   39.70    2.50
   8  -3  -1   37.80    2.50
  -3  -5  -1   35.20    4.00
  -3  -5  -1   40.50    4.60
  -3  -5  -1   41.20    2.70
   5  -8   1   43.00    2.60
   5  -8   1   39.20    2.60
   5  -8   1   41.30    3.50
   5  -8   1   38.80    2.50
   5  -8   1   39.80    2.70
   5  -8   1   37.20    3.20
   5  -8   1   39.80    2.40
   9  -4  -1   51.19    3.70
  -4  -5  -1   50.89    4.90
   9  -4  -1   55.99    3.00
   9  -4  -1   53.59    3.10
   9  -4  -1   57.29    3.10
   9  -4  -1   54.09    3.00
   5  -9   1   51.99    3.10
   5  -9   1   57.99    3.40
   4   5   1   54.39    3.20
   5  -9   1   54.69    2.90
   5  -9   1   56.79    3.10
   5  -9   1   54.89    4.10
   5  -9   1   52.29    3.90
  10  -5  -1    9.70    1.50
  10  -5  -1    6.10    1.10
  -5  -5  -1    7.50    2.40
  10  -5  -1    7.90    1.30
  10  -5  -1    8.50    1.30
  10  -5  -1    4.60    1.40
   5 -10   1   10.20    1.80
   5 -10   1    8.00    1.50
   5   5   1    7.30    1.20
   5 -10   1    6.30    1.10
   5 -10   1    5.60    1.50
   5   5   1    8.80    1.50
   5 -10   1    6.20    1.70
   5 -10   1    8.20    1.30
  11  -6  -1   35.60    1.90
  -6  -5  -1   32.20    2.90
  -5  11  -1   35.50    2.10
  11  -6  -1   32.40    1.80
  11  -6  -1   32.90    1.90
  11  -6  -1   29.80    1.80
   5 -11   1   39.20    2.10
   5 -11   1   36.40    2.00
   5 -11   1   33.80    2.40
   5 -11   1   36.00    2.60
   5 -11   1   36.40    1.80
 -11   6   1   37.10    2.50
   6   5   1   33.40    1.80
   6   5   1   35.50    1.90
  -6  -4  -1    2.90    1.20
  10  -6  -1    4.90    1.10
  10  -6  -1    6.40    1.10
  10  -6  -1    6.30    1.20
  10  -6  -1    9.70    1.50
   6   4   1    5.30    1.20
   6   4   1    5.60    1.00
   4 -10   1    4.40    1.30
   4 -10   1    4.50    0.90
   4 -10   1    7.90    1.50
   4 -10   1    6.20    1.30
   4 -10   1    3.70    1.10
   9  -6  -1   55.09    3.10
  -6  -3  -1   51.09    5.10
   9  -6  -1   60.19    3.20
   9  -6  -1   56.29    3.70
   9  -6  -1   57.99    3.30
   9  -6  -1   56.59    3.20
   3  -9   1   53.19    2.80
   3  -9   1   53.79    3.10
   6   3   1   50.79    2.90
   3  -9   1   52.19    4.00
   6   3   1   55.39    3.00
   3  -9   1   55.09    3.10
   3  -9   1   54.79    3.30
   3  -9   1   53.79    4.00
   8  -6  -1   29.80    2.90
   8  -6  -1   26.60    2.20
   8  -6  -1   27.70    2.30
   8  -6  -1   28.40    2.20
   8  -6  -1   26.50    2.10
  -6  -2  -1   25.70    3.80
  -6  -2  -1   27.20    3.00
   6   2   1   24.70    2.20
   6   2   1   26.20    2.20
   2  -8   1   25.10    2.30
   2  -8   1   27.70    2.80
   2  -8   1   26.40    2.30
   2  -8   1   26.10    2.90
   2  -8   1   28.70    2.10
   2  -8   1   25.80    1.90
   7  -6  -1   63.39    3.30
  -6  -1  -1   59.19    4.40
   7  -6  -1   61.29    2.90
   7  -6  -1   68.59    3.50
   7  -6  -1   63.09    3.30
   7  -6  -1   62.29    3.20
   1  -7   1   71.19    5.60
   6   1   1   64.69    3.30
   1  -7   1   68.39    3.30
   1  -7   1   66.39    3.00
   1  -7   1   59.59    3.30
   1  -7   1   70.39    4.10
   6   1   1   64.19    3.30
   1  -7   1   64.29    3.40
   1  -7   1   72.99    4.20
   6  -6  -1  229.18    8.00
   6  -6  -1  223.88    7.90
   6  -6  -1  227.08    8.10
   6  -6  -1  234.28    8.10
  -6   0  -1  230.78   13.10
   6  -6  -1  208.88    7.90
   0   6  -1  225.48   11.70
  -6   0  -1  216.98    9.40
   0  -6   1  247.88   11.40
   0  -6   1  220.68    8.00
  -6   6   1  235.68   12.20
   6   0   1  226.28    8.00
   0  -6   1  227.78    9.70
   0  -6   1  226.28   14.10
   6   0   1  217.48    7.90
   1   5  -1   75.29    5.90
   5  -6  -1   82.19    7.30
  -6   1  -1   72.09    6.40
  -1  -5   1   76.59    7.00
  -5   6   1   75.19    6.10
   6  -1   1   70.89    5.40
  -1  -5   1   81.89    5.80
   2   4  -1  187.98    9.80
  -6   2  -1  173.58   10.40
   4  -6  -1  204.88   12.40
  -2  -4   1  222.98   10.10
  -4   6   1  203.38   10.30
   6  -2   1  209.58   10.00
  -6   3  -1   26.40    3.50
   3  -6  -1   29.90    4.70
   3   3  -1   31.30    3.50
  -3  -3   1   39.20    4.00
  -3   6   1   32.00    3.60
   6  -3   1   30.70    3.40
  -3  -3   1   26.00    3.10
   2  -6  -1  474.85   22.30
   4   2  -1  469.65   18.80
   2  -6  -1  498.35   17.90
  -4  -2   1  461.75   17.70
  -2   6   1  469.25   18.80
   6  -4   1  490.45   18.90
  -4  -2   1  503.95   20.10
   1  -6  -1  330.57   13.60
   5   1  -1  319.97   14.20
   1  -6  -1  326.77   17.40
  -6   5  -1  326.07   14.50
  -1   6   1  312.67   14.00
  -5  -1   1  315.17   15.40
  -5  -1   1  287.57   13.50
   0  -6  -1  220.28    8.00
   6   0  -1  234.08    9.40
   6   0  -1  224.58    8.00
   0  -6  -1  227.28   14.40
   0  -6  -1  233.78    8.10
   0  -6  -1  231.48    9.20
  -6   6  -1  228.18   12.20
   0  -6  -1  237.58   11.40
   6  -6   1  213.98    8.00
  -6   0   1  236.28   10.50
   6  -6   1  224.98    8.20
   6  -6   1  235.48    8.20
  -6   0   1  236.88   13.30
   0   6   1  226.18   11.40
   6  -6   1  220.88    7.70
   6  -6   1  226.88    8.00
   7  -1  -1   30.60    2.20
  -1  -6  -1   30.70    1.90
  -1  -6  -1   30.90    4.00
   7  -1  -1   31.60    2.90
   7  -1  -1   28.70    2.00
  -1  -6  -1   28.10    2.20
   7  -1  -1   28.60    2.10
  -1  -6  -1   27.70    2.20
   7  -1  -1   21.90    2.40
   6  -7   1   28.20    1.90
   6  -7   1   29.30    2.20
   6  -7   1   28.50    2.20
   6  -7   1   28.90    2.20
   6  -7   1   27.10    2.00
   6  -7   1   30.70    2.80
   8  -2  -1   64.79    3.30
   8  -2  -1   65.49    3.50
  -2  -6  -1   65.99    6.00
   8  -2  -1   64.79    3.40
   8  -2  -1   63.29    4.00
  -2  -6  -1   67.69    3.60
   6  -8   1   70.19    3.30
   6  -8   1   66.09    3.50
   6  -8   1   67.69    3.70
   6  -8   1   69.69    4.50
   6  -8   1   66.29    3.40
   6  -8   1   67.59    3.40
   9  -3  -1    3.10    1.00
   9  -3  -1    6.60    1.10
   9  -3  -1    1.40    1.20
   9  -3  -1    2.50    0.90
  -3  -6  -1    2.20    1.10
   9  -3  -1    4.10    1.10
   6  -9   1    6.30    1.60
   6  -9   1    3.40    1.30
   6  -9   1    4.20    1.10
  -9   3   1    3.10    1.50
   6  -9   1    3.80    1.10
   6  -9   1    3.50    1.10
   6  -9   1    5.80    1.30
  10  -4  -1   74.49    4.20
  10  -4  -1   78.99    3.60
  10  -4  -1   77.89    3.60
  10  -4  -1   77.09    3.40
  10  -4  -1   77.59    3.50
  -4  -6  -1   76.39    5.30
   6 -10   1   79.19    3.70
   6 -10   1   77.19    3.60
   4   6   1   78.29    3.60
   4   6   1   76.19    3.60
   6 -10   1   79.19    3.40
 -10   4   1   77.89    4.60
   6 -10   1   89.19    4.10
   6 -10   1   79.49    4.60
  11  -5  -1   79.79    3.10
  11  -5  -1   77.39    3.20
  -5  -6  -1   69.69    4.20
  11  -5  -1   77.69    3.00
   6 -11   1   81.49    3.30
   6 -11   1   77.89    3.00
 -11   5   1   82.89    3.80
   5   6   1   79.99    3.20
   6 -11   1   80.19    3.90
   5   6   1   75.59    3.00
   6 -11   1   76.19    3.20
  11  -7  -1   85.59    3.20
  -4  11  -1   84.99    3.30
  -7  -4  -1   76.99    4.50
  11  -7  -1   79.99    3.20
  11  -7  -1   81.39    3.30
  11  -7  -1   83.69    3.20
   4 -11   1   82.79    3.80
   4 -11   1   81.99    4.00
   7   4   1   74.59    3.60
   4 -11   1   76.79    3.20
   4 -11   1   76.89    3.10
   7   4   1   81.69    3.20
   4 -11   1   80.09    3.20
  10  -7  -1    1.00    0.80
  10  -7  -1   -0.50    0.80
  -7  -3  -1   -0.30    0.80
  -3  10  -1    0.60    0.90
  10  -7  -1    0.90    0.70
  10  -7  -1    1.40    1.00
   3 -10   1    1.40    1.00
   3 -10   1    1.00    0.60
 -10   7   1   -1.80    0.90
   7   3   1    0.10    0.80
   3 -10   1    0.50    0.90
   3 -10   1    0.00    0.80
   7   3   1   -0.30    0.60
   3 -10   1    0.30    0.90
  -2   9  -1   48.40    3.00
  -7  -2  -1   41.20    4.60
  -7  -2  -1   45.80    3.60
   9  -7  -1   44.60    3.00
   9  -7  -1   46.00    2.80
   9  -7  -1   47.70    3.00
   9  -7  -1   49.20    2.90
   7   2   1   48.40    2.80
   7   2   1   48.40    2.80
   2  -9   1   48.00    2.90
   2  -9   1   47.00    3.50
   2  -9   1   46.60    3.80
   2  -9   1   45.30    2.80
   2  -9   1   48.00    2.50
   8  -7  -1   40.90    2.60
   8  -7  -1   40.70    2.90
  -7  -1  -1   50.29    4.30
   8  -7  -1   43.00    2.40
  -1   8  -1   37.90    2.70
   8  -7  -1   40.90    2.70
  -7  -1  -1   42.50    3.90
   8  -7  -1   42.90    2.80
   7   1   1   41.90    2.60
   1  -8   1   43.40    5.60
   1  -8   1   37.70    3.50
   1  -8   1   43.50    2.30
   7   1   1   38.70    2.60
   1  -8   1   40.20    3.20
   1  -8   1   39.00    2.60
   1  -8   1   39.30    2.70
   7  -7  -1   33.80    2.40
   0   7  -1   31.10    2.50
   7  -7  -1   31.00    2.30
  -7   0  -1   31.70    3.40
   7  -7  -1   32.30    2.50
   7  -7  -1   31.50    2.30
   7  -7  -1   33.90    2.20
   0  -7   1   33.40    2.40
   7   0   1   33.90    2.40
   0  -7   1   29.90    4.00
   7   0   1   33.70    2.30
   0  -7   1   31.40    2.30
   7   0   1   36.90    2.60
   6  -7  -1   26.20    2.10
   6  -7  -1   26.50    1.90
   6  -7  -1   28.40    2.10
  -7   1  -1   28.50    3.10
   1   6  -1   24.40    2.00
   6  -7  -1   29.50    2.10
   6  -7  -1   26.50    2.50
   6  -7  -1   24.80    2.00
  -1  -6   1   25.20    2.10
   7  -1   1   26.70    2.00
   7  -1   1   29.20    2.10
   7  -1   1   27.70    2.40
  -1  -6   1   27.10    2.10
  -1  -6   1   26.90    3.80
   5  -7  -1    4.40    1.00
   5  -7  -1    5.70    1.10
   5  -7  -1    5.00    1.10
   5  -7  -1    5.60    1.00
   2   5  -1    3.20    1.90
   5  -7  -1    4.20    1.20
   2   5  -1    5.30    1.20
   5  -7  -1    5.20    1.00
   7  -2   1    6.00    1.10
   7  -2   1    3.80    0.90
  -2  -5   1    3.80    1.80
   7  -2   1    5.20    2.20
   7  -2   1    2.00    1.00
   7  -2   1    7.00    1.20
  -2  -5   1    2.20    0.90
   4  -7  -1  126.89   10.50
   4  -7  -1  116.79    4.60
   4  -7  -1  123.39    4.90
   4  -7  -1  120.09    5.80
   4  -7  -1  115.49    5.80
   4  -7  -1  114.19    4.90
   3   4  -1  113.19    7.70
  -7   3  -1  113.29    8.30
   4  -7  -1  123.29    4.80
   3   4  -1  113.29    4.80
   7  -3   1  111.89    7.50
   7  -3   1  115.09    4.70
   7  -3   1  112.69    5.40
  -3  -4   1  125.29    7.70
  -4   7   1  106.89    7.70
   7  -3   1  119.29    4.80
  -3  -4   1  126.49    7.00
   3  -7  -1  223.68    9.10
   4   3  -1  199.98   11.10
   3  -7  -1  216.08    7.80
   3  -7  -1  222.58    7.90
   3  -7  -1  221.98    7.80
   3  -7  -1  227.48    7.60
   4   3  -1  206.08    8.30
   3  -7  -1  222.18    8.90
   4   3  -1  236.88    8.10
   3  -7  -1  230.28   14.90
  -4  -3   1  211.18   10.60
   7  -4   1  207.88    7.80
  -3   7   1  229.38   11.70
   7  -4   1  207.18   11.10
   7  -4   1  212.68    7.40
   7  -4   1  213.88    7.70
   7  -4   1  219.68    8.50
  -4  -3   1  224.38   10.50
   7  -4   1  211.18    7.70
   7  -4   1  220.88    7.80
   2  -7  -1   84.19    3.90
   2  -7  -1   81.19    4.60
   5   2  -1   78.59    3.80
   5   2  -1   81.09    6.50
   2  -7  -1   80.59    4.00
   5   2  -1   83.19    3.80
   5   2  -1   77.09    3.60
   2  -7  -1   78.99    4.80
   2  -7  -1   80.39    3.50
   2  -7  -1   83.99    5.90
   2  -7  -1   81.79    3.80
   7  -5   1   85.79    3.90
  -5  -2   1   84.79    5.80
  -5  -2   1   91.39    5.90
   7  -5   1   82.09    3.70
   7  -5   1   81.59    3.50
   7  -5   1   83.39    3.80
   7  -5   1   81.59    3.80
  -2   7   1   81.59    7.40
   7  -5   1   81.09    4.30
   6   1  -1   97.89    4.30
   6   1  -1   92.39    4.30
   6   1  -1   99.09    4.40
   1  -7  -1   97.39    5.20
   1  -7  -1  101.49    4.50
   1  -7  -1  106.09    5.60
   1  -7  -1  109.09    7.20
   1  -7  -1   97.19    4.10
   1  -7  -1   97.19    4.40
   1  -7  -1   99.79    4.50
   7  -6   1  101.09    4.50
  -6  -1   1  112.69    6.70
   7  -6   1   99.29    4.40
   7  -6   1   94.99    4.30
   7  -6   1   99.49    4.10
   7  -6   1  101.69    4.40
   0  -7  -1  260.57   10.30
   0  -7  -1  254.47    8.60
   0  -7  -1  257.17   12.80
   0  -7  -1  256.67    9.10
   7   0  -1  238.88    9.30
   7   0  -1  249.58    9.00
   0  -7  -1  256.67    9.00
   7   0  -1  262.57    9.10
   0  -7  -1  238.08    9.90
   7   0  -1  249.88    8.80
   7  -7   1  269.97    8.80
   0   7   1  238.78    8.90
   7  -7   1  256.17    9.10
   7  -7   1  250.77    9.00
  -7   0   1  256.67   11.60
   7  -7   1  249.78    8.90
   7  -7   1  256.37    9.20
   8  -1  -1   73.19    3.70
  -1  -7  -1   70.99    3.70
   8  -1  -1   68.59    4.00
   8  -1  -1   69.39    3.50
   8  -1  -1   74.89    3.70
  -1  -7  -1   68.39    6.10
  -1  -7  -1   73.29    3.30
   7  -8   1   71.59    3.60
   7  -8   1   69.19    3.60
  -8   1   1   72.89    5.20
   7  -8   1   73.19    3.80
   7  -8   1   68.09    4.30
   7  -8   1   71.69    3.70
   7  -8   1   75.79    3.50
  -2  -7  -1   28.90    2.30
   9  -2  -1   24.80    2.40
   9  -2  -1   26.40    2.10
   9  -2  -1   29.00    2.20
   9  -2  -1   26.40    2.10
   7  -9   1   25.90    2.80
   7  -9   1   27.10    2.30
  -9   2   1   27.40    3.30
   7  -9   1   26.30    2.20
   7  -9   1   30.50    2.60
   7  -9   1   27.30    2.10
   7  -9   1   29.10    2.40
  10  -3  -1   17.30    1.60
  10  -3  -1   16.30    1.60
  10  -3  -1   16.80    1.70
   7 -10   1   16.40    1.80
   7 -10   1   15.70    1.80
   7 -10   1   13.90    1.50
   7 -10   1   13.20    2.10
   3   7   1   17.70    1.80
   7 -10   1   20.80    2.20
 -10   3   1   17.90    2.70
  11  -4  -1   26.30    2.00
  11  -4  -1   18.20    1.40
   4   7   1   19.90    1.40
   4   7   1   23.10    1.90
 -11   4   1   24.60    2.00
   7 -11   1   19.30    1.80
   7 -11   1   19.20    1.50
   7 -11   1   20.10    1.60
   7 -11   1   19.40    1.30
   7 -11   1   22.50    1.60
  -8  -3  -1   60.09    4.00
  11  -8  -1   59.19    2.50
  11  -8  -1   75.39    3.60
  11  -8  -1   61.99    2.70
  -8  -2  -1   39.80    3.90
  10  -8  -1   43.60    2.40
  10  -8  -1   47.30    2.60
  -8  -2  -1   40.10    2.90
  10  -8  -1   41.20    2.40
  -2  10  -1   41.10    2.30
  10  -8  -1   40.50    2.40
   2 -10   1   42.40    3.20
   8   2   1   42.60    2.20
   2 -10   1   37.10    2.30
   2 -10   1   44.00    2.80
   8   2   1   43.50    2.30
   9  -8  -1   75.69    3.80
   9  -8  -1   80.19    3.90
   9  -8  -1   82.39    3.80
  -8  -1  -1   79.89    4.90
  -1   9  -1   80.09    3.80
   9  -8  -1   76.09    3.30
  -8  -1  -1   76.49    5.60
   9  -8  -1   75.89    3.70
   1  -9   1   84.19    4.30
   8   1   1   77.89    3.60
   1  -9   1   78.09    4.70
   1  -9   1   72.89    3.60
   8   1   1   78.29    3.70
   8  -8  -1   82.39    4.00
   8  -8  -1   82.59    3.90
   0   8  -1   81.19    4.00
   8  -8  -1   83.79    4.10
  -8   0  -1   82.69    5.20
   8  -8  -1   81.49    4.00
   8  -8  -1   79.09    3.50
   8   0   1   77.29    3.80
   8   0   1   78.29    3.80
   0  -8   1   74.89    3.90
   0  -8   1   90.89    4.80
   7  -8  -1  449.76   14.60
   1   7  -1  436.56   14.60
   7  -8  -1  447.16   14.20
   7  -8  -1  453.85   14.60
  -8   1  -1  424.76   16.40
   7  -8  -1  449.95   14.80
   7  -8  -1  441.56   14.50
   8  -1   1  436.86   14.50
  -1  -7   1  427.76   14.40
  -1  -7   1  440.26   18.80
  -1  -7   1  454.75   15.70
   8  -1   1  444.46   14.50
  -8   2  -1  127.69    6.90
   6  -8  -1  134.99    5.60
   6  -8  -1  136.79    6.50
   6  -8  -1  133.99    5.60
   6  -8  -1  140.39    5.60
   6  -8  -1  132.49    5.40
   6  -8  -1  140.49    5.30
   2   6  -1  128.69    5.50
  -2  -6   1  133.69    8.70
   8  -2   1  134.49    5.40
  -2  -6   1  131.99    5.40
   8  -2   1  134.29    6.10
   8  -2   1  133.39    5.50
   5  -8  -1  111.89    4.60
   5  -8  -1  107.59    4.80
   5  -8  -1  110.29    4.70
   5  -8  -1  100.39    5.50
   5  -8  -1  112.49    5.80
   3   5  -1  102.89    4.70
  -8   3  -1  122.79    5.90
   5  -8  -1  106.09    4.80
   8  -3   1  111.79    4.80
   8  -3   1  107.89    4.70
  -3  -5   1  112.29    7.70
  -3  -5   1  104.09    6.80
   8  -3   1  109.29    5.40
   8  -3   1  106.59    4.60
   4   4  -1  456.35   14.80
   4   4  -1  441.26   14.90
   4  -8  -1  457.35   16.50
  -8   4  -1  478.65   16.20
   4  -8  -1  457.75   14.70
   4  -8  -1  472.25   16.50
   4  -8  -1  465.15   15.00
   4  -8  -1  458.35   14.90
   4  -8  -1  456.35   15.00
  -4  -4   1  438.26   18.70
   8  -4   1  451.05   14.80
   8  -4   1  471.05   15.90
  -4  -4   1  437.96   18.20
   8  -4   1  462.85   15.00
   8  -4   1  463.55   15.10
   8  -4   1  451.85   14.90
   8  -4   1  464.75   14.90
   3  -8  -1  929.01   29.60
   5   3  -1  864.11   27.60
   3  -8  -1  902.71   27.90
   3  -8  -1  937.91   27.90
   3  -8  -1  933.61   27.60
   3  -8  -1  923.61   28.00
   5   3  -1  914.51   27.90
   5   3  -1  873.21   27.80
   3  -8  -1  940.31   29.90
  -5  -3   1  880.31   31.70
  -5  -3   1  879.61   31.70
   8  -5   1  923.21   28.70
   8  -5   1  900.91   27.80
   8  -5   1  902.61   27.90
   8  -5   1  851.51   27.30
   8  -5   1  911.31   28.00
   8  -5   1  913.11   27.90
   6   2  -1   21.60    2.00
   6   2  -1   22.80    2.00
   2  -8  -1   25.30    1.80
   2  -8  -1   29.00    2.30
   2  -8  -1   23.50    2.20
   2  -8  -1   23.30    2.80
   6   2  -1   22.40    2.00
   2  -8  -1   24.70    2.30
   2  -8  -1   23.30    2.60
   8  -6   1   23.30    2.00
   8  -6   1   24.90    2.10
   8  -6   1   23.90    1.80
  -6  -2   1   20.10    2.80
   8  -6   1   26.20    2.10
   8  -6   1   22.60    2.00
   8  -6   1   23.50    2.40
  -6  -2   1   21.20    3.50
   1  -8  -1   64.09    4.50
   1  -8  -1   68.39    3.20
   1  -8  -1   75.19    3.80
   1  -8  -1   68.39    3.60
   1  -8  -1   68.29    4.30
   7   1  -1   66.89    3.40
   7   1  -1   72.29    3.60
   7   1  -1   67.79    3.40
  -1   8   1   63.69    3.50
   8  -7   1   72.29    3.70
   8  -7   1   69.79    3.60
   8  -7   1   70.89    3.70
   8  -7   1   69.49    3.50
   8  -7   1   67.99    3.30
  -7  -1   1   66.39    4.70
  -7  -1   1   65.79    5.80
   8   0  -1  118.19    5.00
   0  -8  -1  120.89    5.80
   0  -8  -1  115.29    5.10
   8   0  -1  120.69    5.10
   0  -8  -1  122.99    4.70
   0  -8  -1  116.49    6.10
   8   0  -1  109.09    4.80
  -8   0   1  128.79    7.20
  -8   0   1  123.99    6.60
   8  -8   1  117.39    5.20
   8  -8   1  124.69    5.20
   8  -8   1  120.19    5.20
   8  -8   1  123.19    4.80
   8  -8   1  117.59    5.00
  -1  -8  -1  592.14   19.40
  -1  -8  -1  622.54   18.50
   9  -1  -1  577.34   18.10
   9  -1  -1  545.65   18.20
   9  -1  -1  596.34   18.40
   8  -9   1  554.64   19.20
   8  -9   1  594.44   18.40
   8  -9   1  594.44   18.60
   8  -9   1  606.34   18.20
  -9   1   1  570.94   20.20
   8  -9   1  593.64   18.50
   8  -9   1  569.44   18.40
  10  -2  -1   58.49    2.80
  10  -2  -1   52.59    2.80
  10  -2  -1   58.19    2.70
   8 -10   1   58.49    3.10
   8 -10   1   58.99    2.90
   8 -10   1   53.99    3.20
 -10   2   1   60.59    3.30
   8 -10   1   52.99    2.80
   2   8   1   59.59    2.90
 -10   2   1   55.49    3.70
   8 -10   1   57.29    2.60
  11  -3  -1   85.79    3.20
   8 -11   1   75.39    3.60
   3   8   1   81.19    3.30
   8 -11   1   69.09    3.50
   8 -11   1   77.79    2.90
   8 -11   1   80.79    3.20
  10  -9  -1    5.90    1.10
  10  -9  -1    6.30    1.10
  -1  10  -1    6.80    1.00
  10  -9  -1   10.40    1.40
  10  -9  -1    5.90    1.00
  -9  -1  -1    6.30    1.50
   1 -10   1    6.80    1.40
   9   1   1    6.20    1.10
   9   1   1    5.10    0.90
   9  -9  -1   31.60    2.20
   0   9  -1   34.90    2.10
  -9   0  -1   34.80    3.00
   9  -9  -1   31.30    1.90
   9  -9  -1   41.00    2.50
   9  -9  -1   33.60    2.40
   9  -9  -1   34.80    2.30
   9   0   1   34.30    2.10
   9   0   1   34.80    2.20
   0  -9   1   36.00    2.80
   0  -9   1   29.60    2.00
   8  -9  -1   96.19    4.20
   8  -9  -1   94.29    3.90
   8  -9  -1   94.19    4.20
  -9   1  -1   90.59    5.40
   8  -9  -1   92.99    4.20
   8  -9  -1   94.19    4.40
  -9   1  -1   90.79    4.50
   1   8  -1   94.79    4.10
   9  -1   1   93.89    4.10
  -1  -8   1   90.29    4.00
   9  -1   1   90.39    4.00
   7  -9  -1  312.37   10.50
   2   7  -1  303.57   10.50
   7  -9  -1  309.07   10.20
   7  -9  -1  306.17   11.40
   7  -9  -1  323.97   10.60
   7  -9  -1  300.27   10.30
  -9   2  -1  294.67   12.10
   7  -9  -1  315.37   10.80
   9  -2   1  294.37   10.40
   9  -2   1  308.77   10.50
   6  -9  -1  124.39    5.20
   6  -9  -1  123.19    4.90
   6  -9  -1  127.09    5.40
  -9   3  -1  123.59    6.60
   3   6  -1  123.79    5.10
   3   6  -1  121.09    5.10
   6  -9  -1  118.19    6.10
   6  -9  -1  126.29    5.30
   9  -3   1  120.49    5.00
   9  -3   1  123.49    5.10
   9  -3   1  123.19    5.10
   5  -9  -1   11.40    2.20
   5  -9  -1    9.80    1.70
   4   5  -1   11.60    1.70
   5  -9  -1    9.60    1.80
   5  -9  -1   12.70    2.20
   5  -9  -1   12.30    2.30
   5  -9  -1    9.70    1.50
   4   5  -1   10.30    1.50
   9  -4   1   11.70    1.60
   9  -4   1    9.70    1.50
   9  -4   1    7.10    1.60
  -4  -5   1    6.30    2.60
  -4  -5   1    8.00    2.50
   9  -4   1   11.10    1.30
   9  -4   1    9.40    1.40
   4  -9  -1  146.89    5.80
   4  -9  -1  144.09    7.00
   5   4  -1  143.49    5.80
   4  -9  -1  152.78    5.60
   5   4  -1  140.89    5.60
   4  -9  -1  143.69    5.80
   5   4  -1  137.99    5.60
   4  -9  -1  149.09    6.00
   4  -9  -1  140.99    7.00
  -5  -4   1  140.59    8.40
   9  -5   1  142.29    5.70
   9  -5   1  139.59    5.60
   9  -5   1  145.79    5.80
   9  -5   1  145.79    5.80
  -5  -4   1  161.78   10.10
   3  -9  -1    1.10    0.90
   6   3  -1    1.20    0.80
   3  -9  -1    1.10    0.80
   3  -9  -1    0.80    1.10
   3  -9  -1    2.40    1.30
   6   3  -1    0.90    0.80
   3  -9  -1    0.40    0.90
   6   3  -1    0.80    0.90
   3  -9  -1    1.00    1.00
   9  -6   1    1.60    1.00
   9  -6   1    1.10    0.90
  -6  -3   1    0.20    0.90
   9  -6   1    1.00    0.80
   9  -6   1    1.20    0.70
   9  -6   1    1.40    0.80
   7   2  -1    1.60    1.00
   7   2  -1    1.00    0.80
   2  -9  -1    1.90    1.10
   2  -9  -1    0.60    0.90
   7   2  -1    1.10    0.70
   2  -9  -1    2.20    1.00
   2  -9  -1    2.40    0.80
   2  -9  -1    2.60    1.30
  -7  -2   1    1.00    1.00
   9  -7   1    1.90    0.90
  -2   9   1   -0.40    0.90
  -7  -2   1   -0.10    0.90
   9  -7   1    1.60    0.90
   9  -7   1    1.70    1.00
   9  -7   1    2.70    1.10
   9  -7   1    0.60    0.70
   1  -9  -1   48.70    3.70
   1  -9  -1   51.09    2.50
   1  -9  -1   50.79    3.00
   1  -9  -1   52.79    3.50
   1  -9  -1   50.29    2.90
   8   1  -1   48.60    2.80
   8   1  -1   48.80    2.70
  -8  -1   1   46.90    4.60
  -8  -1   1   50.09    3.90
   9  -8   1   48.30    2.90
   9  -8   1   55.29    3.10
   9  -8   1   50.99    2.80
   9  -8   1   53.99    3.00
   9  -8   1   49.00    2.60
   9   0  -1   18.20    1.70
   0  -9  -1   20.30    2.30
   0  -9  -1   16.50    1.80
   9  -9   1   20.20    1.90
   9  -9   1   18.20    1.70
   9  -9   1   23.20    2.00
   9  -9   1   18.50    1.90
   9  -9   1   19.20    1.60
  -9   0   1   17.30    2.40
  10  -1  -1  126.49    4.60
   9 -10   1  123.79    4.60
   9 -10   1  120.39    4.70
   1   9   1  125.49    4.60
   9 -10   1  128.59    4.40
 -10   1   1  130.79    5.70
   9 -10   1  125.99    4.50
   9 -10  -1    5.60    1.10
   9 -10  -1    3.50    0.90
   9 -10  -1    3.70    0.60
 -10   1  -1    3.30    0.90
   9 -10  -1    2.40    0.70
   9 -10  -1    5.10    0.80
  10  -1   1    4.10    0.90
  10  -1   1    3.40    0.60
   8 -10  -1   21.40    1.60
   8 -10  -1   18.70    1.70
   8 -10  -1   20.40    1.80
 -10   2  -1   22.40    2.50
 -10   2  -1   24.80    2.20
   8 -10  -1   21.80    1.60
   8 -10  -1   24.50    2.10
  10  -2   1   21.60    1.70
  10  -2   1   22.20    1.60
   7 -10  -1   10.70    1.70
   7 -10  -1   17.40    2.10
 -10   3  -1   10.20    2.20
 -10   3  -1   15.10    2.10
   7 -10  -1    9.70    1.60
   7 -10  -1   10.00    1.90
   7 -10  -1    9.20    1.40
  10  -3   1   11.30    1.50
  10  -3   1   10.30    1.40
   4   6  -1    7.30    1.30
   6 -10  -1    5.80    1.50
   6 -10  -1   12.70    2.10
   6 -10  -1    4.40    1.10
   6 -10  -1    7.40    1.20
 -10   4  -1   13.10    2.20
   6 -10  -1    6.40    1.40
  10  -4   1    7.40    1.30
  10  -4   1    5.80    1.20
   5 -10  -1   30.00    2.10
   5 -10  -1   30.40    2.30
 -10   5  -1   34.00    2.90
   5 -10  -1   34.80    2.50
   5 -10  -1   28.60    2.70
   5 -10  -1   36.40    2.60
   5 -10  -1   31.90    3.10
   5   5  -1   30.50    2.20
  10  -5   1   25.70    1.90
  -5  -5   1   26.30    3.40
  10  -5   1   30.80    2.10
  10  -5   1   32.00    2.20
  10  -5   1   32.20    2.20
   4 -10  -1   69.09    3.20
   6   4  -1   73.49    3.40
   4 -10  -1   64.99    4.20
   4 -10  -1   70.79    3.50
 -10   6  -1   70.59    4.00
   4 -10  -1   70.19    4.40
   4 -10  -1   77.19    3.60
  10  -6   1   66.19    3.30
  10  -6   1   69.49    3.30
  -6  -4   1   66.89    5.20
  10  -6   1   73.49    3.40
  10  -6   1   70.99    3.30
   7   3  -1    8.70    1.50
   3 -10  -1    6.40    1.90
   3 -10  -1   13.40    1.90
   3 -10  -1    8.50    1.60
   3 -10  -1    5.00    1.30
 -10   7  -1    5.60    1.20
   3 -10  -1   10.00    1.40
  -7  -3   1    7.70    2.50
  10  -7   1    8.70    1.50
  -3  10   1    7.30    1.30
  10  -7   1    8.40    1.20
  10  -7   1   10.60    1.40
  10  -7   1    9.50    1.60
  10  -7   1    9.10    1.40
   2 -10  -1   10.70    2.00
   2 -10  -1   14.00    2.00
   2 -10  -1   12.80    1.60
   8   2  -1   12.20    1.40
   2 -10  -1   12.40    1.20
  10  -8   1   12.10    1.50
  -8  -2   1   10.50    1.80
  10  -8   1   12.50    1.50
  10  -8   1   11.30    1.20
  10  -8   1   11.40    1.40
  -8  -2   1   11.20    2.60
  10  -8   1   14.00    1.60
   1 -10  -1   33.40    1.90
   9   1  -1   34.40    1.90
   1 -10  -1   33.00    2.50
  10  -9   1   32.40    1.60
  -9  -1   1   32.00    2.50
  -9  -1   1   28.10    3.00
  10  -9   1   31.20    1.90
  10  -9   1   32.80    1.90
  10  -9   1   32.30    1.80
  10  -9   1   32.70    1.90
   8 -11  -1   19.40    1.50
   8 -11  -1   17.70    1.30
   8 -11  -1   23.70    1.90
   3   8  -1   18.60    1.30
   8 -11  -1   22.80    1.50
 -11   4  -1   77.09    3.50
   7 -11  -1   75.19    3.10
   7 -11  -1   73.19    3.10
   4   7  -1   70.89    3.00
   7 -11  -1   70.99    3.40
   7 -11  -1   72.89    2.80
   7 -11  -1   71.79    3.00
  11  -4   1   72.49    2.90
  11  -4   1   72.89    2.90
   6 -11  -1   48.80    2.40
   6 -11  -1   44.40    2.80
   6 -11  -1   42.90    2.20
   6 -11  -1   45.10    2.30
   5   6  -1   45.70    2.20
   6 -11  -1   42.00    2.10
 -11   5  -1   46.40    2.70
  11  -5   1   43.90    2.10
  11  -5   1   44.30    2.20
   5 -11  -1   12.30    1.50
   5 -11  -1   11.20    1.40
   6   5  -1   12.20    1.30
   5 -11  -1   11.50    1.20
   5 -11  -1   11.80    1.80
   5 -11  -1   16.20    1.60
 -11   6  -1   13.60    1.60
  11  -6   1   11.80    1.30
  11  -6   1   11.60    1.20
  -5  11   1    9.10    1.20
  -6  -5   1   10.10    1.90
   4 -11  -1    1.70    0.80
   7   4  -1    3.00    0.70
   4 -11  -1    3.20    0.80
   4 -11  -1    3.40    0.80
   4 -11  -1    2.90    0.80
   4 -11  -1    3.40    0.70
  11  -7   1    3.00    0.70
  11  -7   1    2.90    0.70
  -7  -4   1    1.50    0.70
  11  -7   1    2.00    0.60
  11  -7   1    4.10    0.80
   3 -11  -1  103.39    4.50
   8   3  -1  101.99    3.80
  11  -8   1  115.39    4.40
  -8  -3   1  101.69    5.30
  11  -8   1  106.99    4.00
  -1   0  -2 4206.88  129.99
   0   1  -2 4178.48  126.19
   1  -1  -2 4425.76  132.89
   0   1  -2 4042.50  128.29
   1  -1  -2 3989.90  124.09
   1  -1  -2 4295.77  130.09
   1   0   2 3979.60  121.99
   1   0   2 3975.50  129.29
   0  -1   2 3757.92  124.59
  -1   1  -2 6307.37  197.08
   1   0  -2 6101.59  191.58
  -1   1  -2 6882.91  194.98
   0  -1  -2 6542.15  199.58
   1   0  -2 6719.93  201.28
   0  -1  -2 6731.13  206.48
  -1   0   2 6122.79  195.18
   0   1   2 5990.80  189.68
   1  -1   2 6429.06  205.48
  -1   2  -2 1388.36   41.90
  -1  -1  -2 1465.35   42.60
   2  -1  -2 1306.67   41.90
  -1   2  -2 1369.86   41.00
   1   1   2 1401.56   41.10
   1  -2   2 1406.06   43.40
   1   1   2 1412.56   43.20
  -2   1   2 1383.46   42.40
  -1   3  -2   70.09    3.80
  -2  -1  -2   55.59    3.20
   3  -2  -2   68.29    3.80
  -2  -1  -2   74.69    4.30
   3  -2  -2   65.49    3.40
   2   1   2   64.79    3.20
   2   1   2   68.39    4.40
   1  -3   2   61.19    4.60
  -3   2   2   62.69    3.80
   1  -3   2   67.39    3.30
   2  -2  -2 2515.45   72.69
   2  -2  -2 2470.65   72.29
  -2   0  -2 2445.86   72.79
   2  -2  -2 2473.35   71.99
   0   2  -2 2599.84   72.29
   0  -2   2 2334.37   71.29
   2   0   2 2497.55   71.39
   0  -2   2 2218.68   72.89
   0  -2   2 2367.16   73.99
   2   0   2 2336.67   72.89
   1  -2  -2 2750.82   85.79
  -2   1  -2 2671.23   81.09
   1  -2  -2 2863.01   82.09
   1   1  -2 2726.73   80.89
  -1  -1   2 2576.04   83.09
   2  -1   2 2930.61   82.09
  -1  -1   2 2708.83   80.89
   2  -1   2 2651.23   82.19
  -2   2  -2 1032.50   31.90
   2   0  -2 1096.09   32.30
   0  -2  -2 1092.99   32.30
  -2   2  -2 1016.10   31.60
   0  -2  -2 1021.40   31.90
   0  -2  -2  989.50   33.40
   0   2   2  990.00   31.40
  -2   0   2 1083.59   32.80
   2  -2   2 1079.99   33.70
  -2   3  -2  110.39    3.90
  -1  -2  -2  115.69    6.40
  -1  -2  -2  131.49    5.90
  -2   3  -2  110.29    5.30
  -1  -2  -2  115.99    5.20
   3  -1  -2  117.49    5.50
  -3   1   2  114.99    5.90
   1   2   2  115.89    4.80
   2  -3   2  126.89    6.90
  -2  -2  -2  101.49    5.20
  -2   4  -2  112.69    5.80
   4  -2  -2  107.29    5.70
  -2  -2  -2  108.89    6.10
   2  -4   2  101.79    4.70
  -4   2   2   99.49    5.90
   2   2   2  104.09    6.50
   2  -4   2  117.89    7.30
   2   2   2  106.79    5.00
  -3  -2  -2  141.49    8.00
   5  -3  -2  146.69    7.50
  -2   5  -2  132.79    7.30
  -3  -2  -2  122.99    6.40
   2  -5   2  134.69    6.30
  -5   3   2  124.49    7.30
   2  -5   2  137.89    9.20
   3   2   2  127.99    6.40
   3   2   2  133.59    7.90
   4  -3  -2  100.69    5.50
  -3  -1  -2   99.49    6.10
  -1   4  -2   97.59    5.40
  -3  -1  -2   95.09    4.70
   1  -4   2   96.49    4.90
  -4   3   2   97.99    5.50
   1  -4   2   98.59    6.70
   3   1   2  101.09    4.90
   3   1   2   89.39    5.70
  -3   0  -2 1011.30   33.70
   0   3  -2 1125.69   35.10
  -3   0  -2 1099.19   35.90
   3  -3  -2 1140.09   34.90
   3  -3  -2 1168.08   35.80
   0  -3   2 1105.79   36.40
   3   0   2 1121.09   35.60
  -3   3   2 1124.09   34.70
   3   0   2 1107.29   34.20
   0  -3   2 1118.49   34.50
   2  -3  -2 3488.25  100.79
   2  -3  -2 3467.95  102.69
   1   2  -2 3499.55  101.39
   2  -3  -2 3227.58  105.59
  -3   1  -2 3493.05  101.99
  -1  -2   2 3475.45  101.09
   3  -1   2 3466.65  102.09
  -1  -2   2 3435.26  106.99
  -1  -2   2 3174.88  101.49
   3  -1   2 3406.76  100.59
  -3   2  -2  147.19    6.50
   1  -3  -2  145.19    6.20
   1  -3  -2  156.08    7.80
   1  -3  -2  162.18    6.20
   2   1  -2  149.09    6.60
  -2  -1   2  146.99    6.20
   3  -2   2  150.78    6.30
  -2  -1   2  153.78    5.90
   3  -2   2  167.48    7.70
  -2  -1   2  166.08    7.10
  -1   3   2  158.58    6.30
   0  -3  -2  744.43   26.30
  -3   3  -2  750.92   23.50
   3   0  -2  744.43   24.60
   0  -3  -2  757.82   24.20
   0  -3  -2  794.92   24.30
  -3   3  -2  777.62   24.40
   3  -3   2  806.52   26.50
  -3   0   2  684.73   23.40
  -3   0   2  771.72   25.40
   0   3   2  676.43   23.60
  -1  -3  -2 1417.46   44.50
  -1  -3  -2 1535.35   45.20
   4  -1  -2 1507.85   45.20
  -1  -3  -2 1425.06   47.00
  -3   4  -2 1380.96   44.80
  -4   1   2 1432.76   46.00
  -4   1   2 1252.77   43.00
   3  -4   2 1574.44   47.90
   1   3   2 1385.16   43.90
  -2  -3  -2   26.30    2.70
   5  -2  -2   23.00    2.80
  -2  -3  -2   27.50    3.20
  -3   5  -2   30.00    3.20
   3  -5   2   27.90    4.10
  -5   2   2   27.40    3.40
   2   3   2   26.80    2.60
  -3   6  -2  929.81   31.60
   6  -3  -2  885.71   31.30
  -3  -3  -2  904.11   30.40
  -6   3   2  858.31   31.90
   3  -6   2  900.81   35.00
   7  -4  -2   60.89    3.10
   7  -4  -2   58.09    3.60
   7  -4  -2   55.99    4.10
  -4  -3  -2   57.09    6.00
   7  -4  -2   54.59    3.10
   7  -4  -2   59.89    3.00
  -4  -3  -2   60.59    5.00
   7  -4  -2   57.79    3.00
  -4  -3  -2   70.09    4.90
   3  -7   2   58.69    3.00
   3  -7   2   57.49    4.00
   3  -7   2   60.09    3.00
   3  -7   2   57.99    3.20
   4   3   2   56.29    3.10
   3  -7   2   56.39    2.70
   3  -7   2   57.19    3.80
   6  -4  -2  121.79    7.50
  -2   6  -2  115.69    7.50
  -4  -2  -2  120.49    8.30
  -4  -2  -2  108.89    6.40
  -6   4   2  118.79    7.60
   2  -6   2  117.79    9.50
   2  -6   2  146.99    7.00
  -4  -1  -2  421.66   17.50
   5  -4  -2  408.26   16.20
  -4  -1  -2  389.76   14.70
  -1   5  -2  405.56   16.30
  -5   4   2  404.16   16.00
   1  -5   2  412.36   18.70
   1  -5   2  436.96   15.50
   4   1   2  437.06   15.40
   0   4  -2  972.70   33.10
   4  -4  -2 1001.60   34.00
  -4   0  -2 1042.40   34.50
   4  -4  -2 1003.30   33.00
   0  -4   2 1032.70   32.60
   4   0   2 1087.79   32.40
   0  -4   2  968.30   34.90
  -4   4   2  969.10   32.30
  -4   1  -2 3899.51  126.59
   3  -4  -2 4283.47  127.79
   1   3  -2 4269.57  125.99
  -1  -3   2 4157.88  129.99
  -3   4   2 4185.88  124.69
  -1  -3   2 4376.06  125.19
  -3   4   2 4211.88  125.79
   4  -1   2 4411.46  125.29
   4  -1   2 4374.46  126.39
  -1  -3   2 4137.79  126.89
   2   2  -2  693.33   23.20
  -4   2  -2  665.93   23.40
   2  -4  -2  703.13   25.30
   2  -4  -2  695.73   22.30
   4  -2   2  720.63   24.10
  -2  -2   2  680.23   22.60
  -2   4   2  702.13   22.90
   4  -2   2  637.24   22.50
  -2  -2   2  710.63   23.50
  -2  -2   2  675.43   22.80
   1  -4  -2  517.75   17.50
   3   1  -2  480.25   18.00
   1  -4  -2  538.75   20.40
  -4   3  -2  466.75   17.40
   4  -3   2  524.45   19.50
   4  -3   2  525.65   17.80
  -3  -1   2  499.35   17.20
  -1   4   2  491.05   17.50
  -3  -1   2  538.35   18.90
   4   0  -2  673.13   23.60
   0  -4  -2  653.33   25.70
  -4   4  -2  686.73   23.40
   0  -4  -2  694.53   23.10
  -4   0   2  639.64   22.00
   0   4   2  666.13   22.80
  -4   0   2  721.73   24.80
   4  -4   2  724.93   25.80
  -1  -4  -2  695.03   28.20
   5  -1  -2  716.53   25.90
  -1  -4  -2  771.62   25.80
  -4   5  -2  794.42   26.30
   4  -5   2  728.13   28.60
  -5   1   2  756.02   27.40
   1   4   2  757.32   25.20
  -2  -4  -2   36.10    3.70
  -4   6  -2   32.20    3.80
   6  -2  -2   33.00    3.80
  -6   2   2   30.50    4.10
   4  -6   2   33.30    5.00
   7  -3  -2   71.69    3.30
   7  -3  -2   65.69    3.40
  -3  -4  -2   73.49    5.20
  -3  -4  -2   65.69    3.30
  -3  -4  -2   67.09    3.10
   7  -3  -2   70.69    3.30
   7  -3  -2   68.29    3.30
   7  -3  -2   66.79    3.90
   7  -3  -2   62.19    4.40
  -3  -4  -2   71.49    5.70
   4  -7   2   65.99    3.00
   4  -7   2   65.09    3.20
   4  -7   2   66.99    4.30
   4  -7   2   69.39    3.50
  -7   3   2   69.59    6.70
   4  -7   2   68.79    4.20
   4  -7   2   68.79    3.30
   4  -7   2   70.99    3.30
   8  -4  -2   26.00    2.10
   8  -4  -2   27.80    2.10
   8  -4  -2   27.80    2.20
  -4  -4  -2   22.60    3.70
  -4  -4  -2   26.50    3.70
   8  -4  -2   26.90    2.10
   8  -4  -2   28.00    2.80
   8  -4  -2   26.40    2.90
   4  -8   2   27.60    2.90
   4  -8   2   26.90    2.00
   4  -8   2   26.60    3.00
   4  -8   2   33.00    2.30
   4   4   2   27.40    2.30
   4  -8   2   28.50    2.10
   4  -8   2   29.40    2.50
   9  -5  -2  223.58    7.90
   9  -5  -2  229.08    8.90
   9  -5  -2  226.48    8.10
   9  -5  -2  220.68    8.00
   9  -5  -2  217.78    8.10
  -5  -4  -2  212.88   11.10
   4  -9   2  222.08    8.20
   4  -9   2  217.58    9.20
   4  -9   2  223.78    8.00
   4  -9   2  211.48    7.90
   4  -9   2  223.98    9.50
   4  -9   2  221.28    7.70
   5   4   2  207.48    7.90
   5   4   2  227.28    8.10
   8  -5  -2  631.64   19.80
   8  -5  -2  632.34   20.00
   8  -5  -2  616.84   19.90
  -5  -3  -2  606.74   21.20
   8  -5  -2  618.44   19.60
  -5  -3  -2  607.14   23.60
   8  -5  -2  635.34   20.50
   3  -8   2  607.94   19.30
   5   3   2  635.04   19.70
   3  -8   2  626.54   19.70
   3  -8   2  629.74   20.00
   3  -8   2  630.64   21.60
   3  -8   2  637.74   19.80
   3  -8   2  615.44   21.10
   5   3   2  634.04   19.80
   7  -5  -2  182.78    6.70
  -5  -2  -2  191.78    9.50
   7  -5  -2  196.78    7.00
   7  -5  -2  190.38    6.90
   7  -5  -2  191.78    7.50
  -5  -2  -2  183.18    8.30
   7  -5  -2  184.88    7.00
   2  -7   2  180.58    6.70
   2  -7   2  179.88    7.80
   2  -7   2  179.18    8.10
   5   2   2  182.38    6.90
   2  -7   2  174.48    6.40
   5   2   2  170.88    6.70
   2  -7   2  188.88    7.10
   2  -7   2  182.88    6.80
  -1   6  -2  371.06   16.60
   6  -5  -2  389.46   16.70
  -5  -1  -2  397.06   18.20
   1  -6   2  409.36   15.90
   1  -6   2  396.46   19.60
   0   5  -2 1024.20   35.70
  -5   0  -2 1029.30   37.20
   0  -5   2 1068.89   38.40
   0  -5   2 1092.99   35.10
   4  -5  -2  167.78    9.90
   1   4  -2  158.28    8.40
  -5   1  -2  171.28    9.40
   5  -1   2  172.18    8.00
  -4   5   2  171.48    8.60
  -1  -4   2  174.68    8.30
  -1  -4   2  152.08    9.20
   2   3  -2 1037.30   34.60
   3  -5  -2 1034.80   37.30
  -5   2  -2 1030.70   35.30
   5  -2   2 1043.40   34.00
  -2  -3   2 1022.10   34.00
  -3   5   2 1068.99   34.50
  -2  -3   2 1091.29   34.60
   2  -5  -2  229.08    9.30
  -5   3  -2  207.48    9.90
   2  -5  -2  218.88   12.20
   3   2  -2  206.78   10.00
  -3  -2   2  224.28    9.50
   5  -3   2  220.48    9.70
  -2   5   2  227.28    9.90
  -3  -2   2  227.88   10.60
   5  -3   2  214.18   10.80
   1  -5  -2  108.59    6.00
   4   1  -2  105.99    6.50
   1  -5  -2  103.49    8.00
  -4  -1   2   99.39    6.80
  -1   5   2  107.59    6.10
   5  -4   2   99.19    7.10
  -4  -1   2   96.69    5.40
   0  -5  -2   98.89    8.20
   0  -5  -2  106.39    6.40
  -5   5  -2  105.49    6.70
   5   0  -2   97.49    6.50
  -5   0   2   99.39    7.30
   0   5   2   92.09    5.90
   5  -5   2  102.69    7.90
  -5   6  -2  296.87   14.60
   6  -1  -2  343.37   15.10
  -1  -5  -2  325.87   17.30
  -1  -5  -2  363.06   14.90
   5  -6   2  357.16   18.00
  -6   1   2  345.57   16.50
   7  -2  -2  854.51   26.40
   7  -2  -2  857.21   26.60
  -2  -5  -2  883.61   31.10
  -2  -5  -2  845.82   26.10
   7  -2  -2  874.01   28.30
  -2  -5  -2  850.41   29.60
   7  -2  -2  875.21   26.50
   7  -2  -2  854.31   26.30
  -2  -5  -2  841.92   27.60
  -2  -5  -2  885.21   26.60
   7  -2  -2  879.71   27.30
   5  -7   2  877.41   27.90
   5  -7   2  835.52   26.40
   5  -7   2  825.92   26.10
   5  -7   2  872.11   26.70
   5  -7   2  842.42   26.30
   5  -7   2  866.31   26.50
   8  -3  -2   75.79    3.80
   8  -3  -2   69.59    4.30
  -3  -5  -2   67.19    3.30
   8  -3  -2   77.59    3.70
   8  -3  -2   73.19    3.50
   8  -3  -2   71.39    4.70
   8  -3  -2   75.59    3.60
  -3  -5  -2   73.19    3.70
  -3  -5  -2   76.49    6.40
  -3  -5  -2   71.69    5.60
   5  -8   2   67.39    4.40
   5  -8   2   71.59    3.50
   5  -8   2   73.59    3.80
   5  -8   2   76.09    3.60
   5  -8   2   75.09    4.60
   5  -8   2   68.19    3.50
   5  -8   2   69.09    3.30
  -5   9  -2    9.30    1.50
  -4  -5  -2    8.30    2.70
   9  -4  -2   10.30    1.40
   9  -4  -2    9.80    1.50
   9  -4  -2   10.10    1.60
   9  -4  -2    9.30    1.50
   9  -4  -2    8.50    1.80
   5  -9   2    9.10    1.50
   5  -9   2    6.60    1.70
   5  -9   2   11.80    2.20
   5  -9   2    9.00    2.10
   5  -9   2   10.50    1.60
   5  -9   2   10.10    1.50
   4   5   2   11.40    1.80
  10  -5  -2   17.20    1.70
  10  -5  -2   16.30    1.60
  10  -5  -2   17.30    1.70
  10  -5  -2   15.90    2.30
  10  -5  -2   15.90    1.80
  -5  -5  -2   15.50    2.90
   5 -10   2   17.50    1.90
   5   5   2   17.50    1.70
   5 -10   2   16.50    1.50
   5 -10   2   19.60    1.80
   5 -10   2   15.50    2.20
   5   5   2   17.70    1.90
   5 -10   2   16.20    2.40
   5 -10   2   16.70    2.10
  -6  -5  -2   26.20    2.70
  11  -6  -2   28.80    1.70
  11  -6  -2   26.50    1.60
  -5  11  -2   30.20    1.90
  11  -6  -2   30.30    1.70
   5 -11   2   25.40    1.80
   5 -11   2   30.00    2.30
 -11   6   2   28.50    2.20
   6   5   2   28.70    1.60
   5 -11   2   29.80    1.50
   6   5   2   26.40    1.60
   5 -11   2   27.00    2.20
   5 -11   2   26.60    1.70
  10  -6  -2   35.40    2.30
  10  -6  -2   31.90    2.10
  -6  -4  -2   34.30    3.80
  10  -6  -2   32.30    2.30
  10  -6  -2   33.60    2.80
  10  -6  -2   30.60    2.30
   4 -10   2   40.30    3.10
   4 -10   2   36.00    2.20
   4 -10   2   35.00    3.10
   6   4   2   35.00    2.30
   6   4   2   33.60    2.20
   4 -10   2   32.90    1.90
   4 -10   2   32.40    2.30
   9  -6  -2  147.09    5.70
   9  -6  -2  141.49    6.30
   9  -6  -2  138.49    5.60
   9  -6  -2  145.49    5.80
  -6  -3  -2  143.29    6.80
  -6  -3  -2  144.79    8.60
   9  -6  -2  144.59    5.90
   6   3   2  141.39    5.60
   3  -9   2  142.09    5.60
   6   3   2  145.69    5.80
   3  -9   2  139.89    6.70
   3  -9   2  149.69    7.20
   3  -9   2  142.59    5.30
   3  -9   2  138.09    5.60
   3  -9   2  141.59    5.90
   8  -6  -2  317.17   10.60
  -6  -2  -2  287.97   13.70
   8  -6  -2  309.37   10.80
  -6  -2  -2  311.87   12.30
   8  -6  -2  315.57   10.70
   8  -6  -2  319.77   10.60
   8  -6  -2  312.07   11.20
   2  -8   2  298.57   11.60
   6   2   2  303.17   10.50
   2  -8   2  307.47   10.60
   2  -8   2  298.87   10.10
   2  -8   2  307.57   10.50
   6   2   2  312.47   10.60
   2  -8   2  291.27   12.00
   2  -8   2  309.57   10.80
  -6  -1  -2  157.18    7.80
   7  -6  -2  167.78    6.50
   7  -6  -2  161.48    6.30
  -6  -1  -2  170.48    8.60
   7  -6  -2  161.88    6.30
   7  -6  -2  161.78    6.20
   1  -7   2  153.78    6.20
   6   1   2  159.08    6.30
   1  -7   2  162.08    6.50
   1  -7   2  166.18    9.20
   1  -7   2  158.38    6.10
   1  -7   2  171.38    7.20
   6   1   2  157.38    6.20
   1  -7   2  166.88    7.50
   6  -6  -2   37.10    2.30
   6  -6  -2   36.50    2.00
   6  -6  -2   39.70    2.50
   0   6  -2   35.70    4.40
  -6   0  -2   34.50    3.20
   6  -6  -2   33.50    2.20
   6  -6  -2   36.50    2.30
  -6   0  -2   34.10    4.90
   0  -6   2   36.40    4.00
   0  -6   2   32.90    2.30
   0  -6   2   39.40    5.70
   6   0   2   34.00    2.30
  -6   6   2   37.10    4.40
   6   0   2   35.60    2.20
  -6   1  -2   73.49    6.70
   1   5  -2   78.89    6.20
  -5   6   2   83.59    6.40
  -1  -5   2   85.49    6.00
   2   4  -2   15.20    3.00
  -6   2  -2   14.40    2.90
   4  -6  -2   15.70    3.60
  -4   6   2   13.90    2.80
  -2  -4   2   14.00    2.60
   6  -2   2   15.40    2.50
   3  -6  -2    9.80    3.30
  -6   3  -2    9.20    2.50
   3   3  -2   12.30    2.80
  -3  -3   2    9.90    2.10
  -3   6   2    8.10    2.20
   6  -3   2    9.60    2.30
   4   2  -2  117.69    7.60
   2  -6  -2  124.29    6.80
   2  -6  -2  125.69    9.90
  -2   6   2  126.29    7.50
  -4  -2   2  122.69    6.80
  -4  -2   2  122.29    8.20
   5   1  -2  312.07   14.60
   1  -6  -2  331.77   14.10
   1  -6  -2  326.97   17.80
  -6   5  -2  344.27   14.90
  -1   6   2  327.87   14.20
  -5  -1   2  316.17   13.10
  -5  -1   2  360.46   16.50
   0  -6  -2   75.49    5.90
   0  -6  -2   75.99    3.60
   0  -6  -2   72.59    3.30
   0  -6  -2   88.59    4.40
   6   0  -2   76.79    3.60
   6   0  -2   76.29    4.50
   6   0  -2   70.29    6.10
   6   0  -2   69.19    3.50
   0  -6  -2   75.89    4.30
   0  -6  -2   73.69    3.60
  -6   6  -2   82.19    6.60
   0  -6  -2   72.19    7.90
   6  -6   2   75.99    3.30
   6  -6   2   82.39    3.70
  -6   0   2   71.79    7.20
   6  -6   2   76.39    3.50
  -6   0   2   90.99    5.60
   6  -6   2   79.39    3.70
   6  -6   2   72.49    3.50
   6  -6   2   73.69    4.20
  -1  -6  -2   70.39    6.00
   7  -1  -2   67.39    3.40
  -1  -6  -2   60.69    3.40
   7  -1  -2   60.99    3.70
  -1  -6  -2   73.09    4.00
   7  -1  -2   64.19    3.40
  -1  -6  -2   64.49    3.00
  -1  -6  -2   65.29    3.30
   7  -1  -2   64.39    4.40
   7  -1  -2   60.59    3.20
   6  -7   2   65.49    3.30
   6  -7   2   67.49    3.10
   6  -7   2   65.79    3.40
   6  -7   2   66.79    3.50
   6  -7   2   65.29    3.20
   6  -7   2   64.19    4.20
  -2  -6  -2  134.79    8.80
  -2  -6  -2  131.59    5.10
   8  -2  -2  125.79    5.50
   8  -2  -2  130.49    5.30
   8  -2  -2  131.99    6.80
   8  -2  -2  125.79    6.00
   8  -2  -2  135.19    5.30
  -2  -6  -2  133.29    5.60
   8  -2  -2  142.69    5.60
   6  -8   2  128.69    5.20
   6  -8   2  135.29    5.60
   6  -8   2  131.19    6.50
   6  -8   2  137.39    5.50
   6  -8   2  130.49    5.40
   6  -8   2  140.79    5.80
   9  -3  -2   32.50    2.20
   9  -3  -2   35.40    2.50
   9  -3  -2   33.30    2.20
  -3  -6  -2   33.30    3.90
   9  -3  -2   27.00    2.80
   9  -3  -2   35.40    2.50
   6  -9   2   32.50    3.10
   6  -9   2   34.70    2.40
   6  -9   2   33.20    2.20
   6  -9   2   33.60    2.40
   6  -9   2   34.00    2.70
  -4  -6  -2  122.79    7.00
  10  -4  -2  129.29    5.80
  10  -4  -2  129.49    4.90
  10  -4  -2  133.49    5.20
  10  -4  -2  127.49    5.00
  -6  10  -2  126.19    5.10
  10  -4  -2  131.09    5.20
   4   6   2  136.89    5.30
   6 -10   2  126.89    5.90
   6 -10   2  133.89    5.10
   4   6   2  136.79    5.20
   6 -10   2  138.19    5.50
 -10   4   2  133.39    6.50
   6 -10   2  138.99    5.00
   6 -10   2  139.79    5.20
   6 -10   2  139.29    6.30
  11  -5  -2   63.69    2.70
  -5  -6  -2   57.39    3.70
  11  -5  -2   59.69    2.60
  11  -5  -2   64.79    2.70
   6 -11   2   60.89    2.80
   5   6   2   65.79    2.70
   6 -11   2   65.39    2.70
   6 -11   2   66.79    2.60
 -11   5   2   68.89    3.40
   6 -11   2   62.39    3.40
   5   6   2   63.39    2.70
  11  -7  -2    1.10    0.60
  -4  11  -2    0.50    0.60
  11  -7  -2    0.50    0.70
  11  -7  -2    0.90    0.70
  -7  -4  -2    0.40    0.60
   7   4   2    0.60    0.40
   4 -11   2    1.10    0.60
   4 -11   2    0.80    0.70
   4 -11   2    1.60    0.70
   7   4   2    1.10    0.60
  -3  10  -2   46.90    2.70
  10  -7  -2   49.40    2.70
  10  -7  -2   43.50    2.50
  10  -7  -2   46.00    2.70
  10  -7  -2   48.10    2.50
  -7  -3  -2   42.40    4.00
   3 -10   2   43.80    2.20
   3 -10   2   43.30    2.40
   3 -10   2   43.10    2.50
   3 -10   2   42.80    3.10
   7   3   2   43.70    2.40
   7   3   2   45.40    2.40
   3 -10   2   44.00    3.30
   9  -7  -2  301.77   10.20
   9  -7  -2  309.77   10.10
  -2   9  -2  295.07   10.30
   9  -7  -2  291.37   10.20
  -7  -2  -2  280.87   13.00
  -7  -2  -2  296.37   11.50
   9  -7  -2  305.37   10.10
   2  -9   2  272.27    9.80
   7   2   2  283.97    9.90
   2  -9   2  290.67   11.00
   2  -9   2  285.57   10.00
   2  -9   2  295.07   11.60
   7   2   2  300.77   10.10
  -7  -1  -2  268.67   12.20
  -7  -1  -2  267.27   11.10
   8  -7  -2  271.27    9.30
   8  -7  -2  256.07    9.20
   8  -7  -2  269.87    9.50
  -1   8  -2  259.57    9.50
   8  -7  -2  262.67    9.30
   1  -8   2  254.77   10.10
   7   1   2  259.17    9.20
   1  -8   2  256.27    9.30
   1  -8   2  260.77    9.10
   1  -8   2  255.37   10.70
   7   1   2  263.07    9.30
   7  -7  -2  590.44   17.80
   0   7  -2  555.94   18.00
   7  -7  -2  565.34   17.80
  -7   0  -2  571.54   19.90
   7  -7  -2  557.84   17.80
   7  -7  -2  579.74   18.10
  -7   0  -2  528.75   20.50
   7  -7  -2  546.05   17.30
   7   0   2  549.54   17.80
   0  -7   2  574.04   17.90
   7   0   2  554.24   17.70
   0  -7   2  536.45   21.90
   0  -7   2  537.35   19.10
   0  -7   2  528.15   17.60
   6  -7  -2    4.70    1.10
  -7   1  -2    3.80    1.20
   6  -7  -2    6.90    1.30
   6  -7  -2    5.90    1.00
   1   6  -2    4.90    1.10
   6  -7  -2    4.90    1.10
   6  -7  -2    5.80    1.20
  -1  -6   2    8.80    2.60
   7  -1   2    4.40    1.10
  -1  -6   2    5.40    1.20
   7  -1   2    9.50    1.50
   7  -1   2    5.90    1.10
  -1  -6   2    2.80    1.10
   5  -7  -2  101.29    4.30
   5  -7  -2  100.59    4.10
   5  -7  -2   94.39    5.10
   2   5  -2   97.49    4.40
   5  -7  -2   98.09    4.40
   5  -7  -2   94.59    4.20
  -7   2  -2  110.09    5.40
   7  -2   2   95.79    4.00
   7  -2   2   97.29    4.20
   7  -2   2  100.59    4.30
  -2  -5   2  109.89    7.30
   7  -2   2  102.79    5.00
   4  -7  -2  260.57    9.00
   4  -7  -2  270.37   10.30
  -7   3  -2  275.27   10.20
   3   4  -2  257.27   13.00
   4  -7  -2  206.48   16.60
   4  -7  -2  272.57    8.80
   4  -7  -2  255.57   10.20
   4  -7  -2  260.77    9.10
   3   4  -2  258.67    9.10
   4  -7  -2  258.77    9.00
  -7   3  -2  237.28   13.20
  -3  -4   2  260.27   11.60
  -3  -4   2  272.47   12.60
   7  -3   2  256.07    8.70
   7  -3   2  254.07    8.90
   7  -3   2  272.37    9.90
   7  -3   2  262.07    9.00
  -4   7   2  268.87   13.10
   3  -7  -2   17.30    1.60
   3  -7  -2   25.00    1.70
   3  -7  -2   18.10    1.70
   3  -7  -2   16.20    2.20
   3  -7  -2   19.90    1.90
   4   3  -2   17.50    3.70
   3  -7  -2   18.80    2.30
   4   3  -2   17.80    1.80
   7  -4   2   16.30    1.40
  -4  -3   2   22.70    3.10
   7  -4   2   16.80    1.60
  -4  -3   2   14.50    2.70
   7  -4   2   19.20    1.60
  -3   7   2   16.40    3.40
   7  -4   2   16.50    1.60
   7  -4   2   17.10    2.00
   7  -4   2   14.20    3.10
   7  -4   2   18.70    1.60
   5   2  -2  120.39    5.20
   2  -7  -2  123.69    6.10
   2  -7  -2  127.09    6.40
   5   2  -2  139.89    6.00
   5   2  -2  130.29    5.20
   2  -7  -2  128.39    5.00
   2  -7  -2  121.69    5.20
   2  -7  -2  134.79    5.30
   2  -7  -2  129.49    5.20
   2  -7  -2  132.39    7.80
   7  -5   2  125.49    5.20
   7  -5   2  126.69    5.20
  -5  -2   2  132.29    7.70
   7  -5   2  128.29    5.20
   7  -5   2  118.59    5.00
  -5  -2   2  128.69    7.50
   7  -5   2  127.99    5.70
   7  -5   2  127.09    4.90
   1  -7  -2   83.29    3.90
   1  -7  -2   81.19    6.20
   6   1  -2   93.19    4.90
   1  -7  -2   78.89    4.60
   1  -7  -2   82.69    3.90
   6   1  -2   77.59    3.80
   1  -7  -2   78.79    3.50
   6   1  -2   81.99    3.80
   1  -7  -2   76.59    4.80
   7  -6   2   79.09    3.80
   7  -6   2   76.19    3.60
   7  -6   2   80.59    3.60
   7  -6   2   80.89    3.90
  -6  -1   2   86.19    6.00
   7  -6   2   78.39    3.90
   7   0  -2   29.60    2.90
   0  -7  -2   28.50    2.00
   0  -7  -2   28.80    4.10
   0  -7  -2   25.90    2.70
   0  -7  -2   29.40    2.40
   7   0  -2   25.50    2.10
   7   0  -2   27.80    2.10
   0  -7  -2   26.60    2.30
   7  -7   2   29.10    2.10
   7  -7   2   28.20    2.70
   7  -7   2   30.70    2.40
   7  -7   2   26.30    2.00
   7  -7   2   32.40    2.30
   7  -7   2   26.80    2.20
  -1  -7  -2  173.28    7.40
   8  -1  -2  169.48    6.70
   8  -1  -2  157.88    7.10
  -1  -7  -2  196.48    7.80
  -1  -7  -2  171.18    6.30
   8  -1  -2  169.48    6.60
  -1  -7  -2  169.08   10.10
  -1  -7  -2  170.98    6.70
   7  -8   2  166.78    6.60
   7  -8   2  176.98    6.80
   7  -8   2  175.98    6.40
   7  -8   2  172.68    6.80
   7  -8   2  173.88    7.70
   7  -8   2  171.68    6.60
  -2  -7  -2   75.19    3.60
   9  -2  -2   82.89    4.00
   9  -2  -2   86.89    4.00
  -2  -7  -2   84.39    4.00
   9  -2  -2   77.39    4.40
   7  -9   2   82.69    4.80
   7  -9   2   87.59    3.90
   7  -9   2   87.79    3.80
   7  -9   2   86.79    4.00
  -9   2   2   84.09    5.40
   7  -9   2   89.49    4.30
   7  -9   2   86.79    4.00
  -7  10  -2   58.69    3.00
  10  -3  -2   58.19    2.90
  10  -3  -2   58.69    2.90
  10  -3  -2   52.59    3.30
   7 -10   2   56.39    2.90
   7 -10   2   61.49    3.30
   3   7   2   60.79    3.10
   7 -10   2   56.59    3.70
   7 -10   2   58.29    2.90
   7 -10   2   56.89    2.70
 -10   3   2   60.79    4.10
  11  -4  -2   46.20    2.10
  11  -4  -2   42.00    2.10
   7 -11   2   43.00    2.20
   7 -11   2   41.60    2.10
   7 -11   2   39.30    2.00
   4   7   2   43.10    2.00
 -11   4   2   45.90    2.60
   7 -11   2   45.60    2.70
   7 -11   2   43.50    2.00
   4   7   2   41.90    2.00
  10  -8  -2   96.09    3.90
  -8  -2  -2   94.49    5.80
  10  -8  -2   98.99    4.00
  -8  -2  -2   97.49    4.70
  -2  10  -2   98.39    4.10
  10  -8  -2  103.59    4.10
  10  -8  -2   99.39    4.10
   2 -10   2   97.19    4.90
   2 -10   2  101.79    4.40
   8   2   2  103.19    4.00
   8   2   2   98.89    3.90
   9  -8  -2  164.98    6.00
   9  -8  -2  160.58    6.00
   9  -8  -2  156.98    6.00
  -1   9  -2  156.48    6.10
  -8  -1  -2  151.58    8.30
   9  -8  -2  161.18    6.20
  -8  -1  -2  156.88    7.30
   1  -9   2  141.39    5.70
   8   1   2  161.78    5.90
   1  -9   2  158.88    7.20
   8   1   2  163.08    6.00
   0   8  -2  162.58    6.60
   8  -8  -2  165.88    6.50
   8  -8  -2  170.48    6.50
  -8   0  -2  159.98    7.90
  -8   0  -2  190.78    8.50
   8  -8  -2  158.98    6.60
   8  -8  -2  170.58    6.50
   0  -8   2  152.88    6.20
   8   0   2  164.48    6.40
   0  -8   2  179.78    7.60
   8   0   2  171.88    6.50
  -8   1  -2   22.30    2.40
   7  -8  -2   22.40    2.20
   7  -8  -2   20.30    2.20
   7  -8  -2   23.20    2.10
   7  -8  -2   25.40    2.10
   7  -8  -2   22.30    1.80
  -8   1  -2   22.10    2.90
   1   7  -2   21.60    2.10
  -1  -7   2   15.70    1.90
  -1  -7   2   21.10    3.60
   8  -1   2   22.90    2.00
   8  -1   2   20.90    1.90
   2   6  -2   40.00    2.70
   6  -8  -2   42.90    2.50
   6  -8  -2   40.60    2.90
   6  -8  -2   40.90    2.70
   6  -8  -2   43.40    2.70
   6  -8  -2   39.70    2.60
   6  -8  -2   41.20    3.20
  -8   2  -2   42.10    3.90
   8  -2   2   42.80    2.60
  -2  -6   2   43.70    4.90
   8  -2   2   44.80    2.70
   5  -8  -2   77.49    3.80
   3   5  -2   78.79    3.90
   5  -8  -2   77.69    3.90
   5  -8  -2   77.79    3.80
   5  -8  -2   76.49    4.70
   5  -8  -2   83.39    3.60
  -3  -5   2   79.59    6.40
   8  -3   2   74.09    3.30
   8  -3   2   80.39    3.80
  -3  -5   2   73.89    5.70
   8  -3   2   78.69    4.40
   8  -3   2   77.89    3.80
   4  -8  -2  690.53   22.20
   4  -8  -2  727.53   22.30
   4  -8  -2  699.73   23.80
   4   4  -2  695.23   22.30
  -8   4  -2  639.34   23.60
   4  -8  -2  737.33   22.20
   4  -8  -2  735.33   23.90
   4  -8  -2  736.03   22.00
  -4  -4   2  747.63   26.80
   8  -4   2  693.73   22.10
   8  -4   2  743.43   23.30
   8  -4   2  718.13   22.20
   8  -4   2  705.83   21.80
  -4  -4   2  684.93   25.70
   8  -4   2  712.23   22.20
   8  -4   2  696.13   22.10
   3  -8  -2  485.45   15.60
   5   3  -2  502.25   15.70
   3  -8  -2  501.45   17.20
   3  -8  -2  475.85   17.40
   3  -8  -2  496.35   15.70
   3  -8  -2  504.95   15.50
   5   3  -2  464.05   15.70
   3  -8  -2  487.55   15.70
   8  -5   2  472.85   15.60
  -5  -3   2  469.45   19.20
  -5  -3   2  446.96   19.00
   8  -5   2  477.85   15.70
   8  -5   2  490.75   15.70
   8  -5   2  477.35   15.20
   8  -5   2  479.95   15.60
   2  -8  -2  155.88    7.30
   2  -8  -2  153.48    6.10
   2  -8  -2  163.98    6.20
   2  -8  -2  156.78    7.60
   6   2  -2  151.88    6.10
   6   2  -2  154.28    6.10
  -8   6  -2  146.39    6.60
   2  -8  -2  150.08    5.80
   8  -6   2  149.09    5.90
   8  -6   2  157.38    6.20
  -6  -2   2  155.08    9.00
   8  -6   2  155.08    6.10
  -6  -2   2  149.09    7.50
   8  -6   2  155.98    6.20
   8  -6   2  148.49    5.70
   1  -8  -2   86.19    4.20
   1  -8  -2   89.39    4.20
   7   1  -2   89.19    4.20
   1  -8  -2   91.49    5.20
   1  -8  -2   83.39    6.70
   1  -8  -2   85.19    5.30
   1  -8  -2   89.79    3.80
   7   1  -2   85.59    4.00
  -7  -1   2   83.39    6.50
   8  -7   2   88.29    3.90
   8  -7   2   87.39    4.10
   8  -7   2   89.19    4.20
   8  -7   2   87.49    4.10
  -7  -1   2   87.49    5.50
   8  -7   2   87.59    4.00
   0  -8  -2   76.09    3.40
   8   0  -2   77.89    3.80
   8   0  -2   73.39    3.70
   0  -8  -2   72.39    4.70
   0  -8  -2   76.79    3.90
   0  -8  -2   74.69    4.40
   8  -8   2   74.89    3.50
   8  -8   2   74.99    3.70
   8  -8   2   75.59    3.70
  -8   0   2   79.79    5.40
  -8   0   2   84.09    5.90
   8  -8   2   78.39    3.90
   8  -8   2   81.79    4.00
  -1  -8  -2   43.90    2.80
  -1  -8  -2   42.40    2.40
   9  -1  -2   44.50    2.80
   9  -1  -2   46.00    2.70
   9  -1  -2   45.20    2.70
   8  -9   2   51.09    3.00
   8  -9   2   47.70    2.80
   8  -9   2   46.20    2.70
   8  -9   2   48.40    2.70
  -9   1   2   46.20    3.80
   8  -9   2   44.70    3.20
   8  -9   2   45.60    2.50
  10  -2  -2  108.79    4.30
  10  -2  -2  108.79    4.30
   8 -10   2  115.49    4.60
   8 -10   2  108.29    4.40
   8 -10   2  109.79    4.90
   2   8   2  115.39    4.50
   8 -10   2  116.09    4.20
   8 -10   2  115.19    4.30
 -10   2   2  112.89    5.60
  -9  -1  -2   20.50    2.00
  10  -9  -2   20.60    1.40
  10  -9  -2   18.00    1.60
  -1  10  -2   18.60    1.40
  10  -9  -2   19.00    1.60
  10  -9  -2   25.00    1.70
   9   1   2   20.60    1.40
   9   1   2   19.70    1.40
   1 -10   2   20.40    1.90
  -9   0  -2   20.70    2.40
   9  -9  -2   19.90    1.80
   0   9  -2   23.50    1.80
   9  -9  -2   26.30    2.10
   9  -9  -2   19.20    1.80
   9  -9  -2   22.10    2.10
   9   0   2   24.50    1.80
   9   0   2   23.40    1.70
   8  -9  -2  108.39    4.50
  -9   1  -2  105.49    4.90
   8  -9  -2  107.49    4.70
  -9   1  -2  100.99    5.70
   8  -9  -2  102.99    4.40
   8  -9  -2  106.79    4.20
   8  -9  -2  106.79    4.50
   1   8  -2  106.79    4.50
   9  -1   2  104.19    4.40
   9  -1   2  107.09    4.50
   2   7  -2   75.89    3.80
   7  -9  -2   75.69    3.70
  -9   2  -2   78.99    4.30
   7  -9  -2   81.69    6.00
   7  -9  -2   77.09    4.00
  -9   2  -2   73.89    4.80
   7  -9  -2   78.79    3.80
   7  -9  -2   75.89    3.50
   7  -9  -2   77.69    3.70
   9  -2   2   77.59    3.70
   9  -2   2   80.29    3.80
   6  -9  -2   70.59    4.40
   3   6  -2   64.99    3.50
   6  -9  -2   72.09    3.60
   6  -9  -2   72.19    3.80
  -9   3  -2   64.39    4.50
   6  -9  -2   68.69    3.50
   6  -9  -2   68.99    3.30
   9  -3   2   72.69    3.60
   9  -3   2   69.79    3.40
   5  -9  -2   47.20    3.10
   5  -9  -2   43.80    2.90
   5  -9  -2   45.10    2.90
   5  -9  -2   45.60    3.60
   5  -9  -2   45.90    2.60
   5  -9  -2   43.80    3.50
   4   5  -2   46.20    2.80
   9  -4   2   47.70    2.80
   9  -4   2   43.40    2.60
  -4  -5   2   43.50    4.40
   9  -4   2   53.69    2.70
   4  -9  -2   55.79    4.10
   5   4  -2   54.49    3.10
   4  -9  -2   59.29    3.20
   4  -9  -2   56.19    4.00
   4  -9  -2   57.49    3.30
   4  -9  -2   53.99    2.90
   4  -9  -2   54.19    3.20
   5   4  -2   55.49    3.10
   9  -5   2   52.59    2.90
   9  -5   2   54.99    2.70
   9  -5   2   54.49    2.90
   9  -5   2   57.99    3.10
  -5  -4   2   50.19    4.80
   9  -5   2   55.49    3.00
   6   3  -2   29.50    2.20
   3  -9  -2   31.70    2.20
   6   3  -2   27.50    2.20
   3  -9  -2   28.30    3.00
  -9   6  -2   27.60    2.60
   3  -9  -2   31.80    2.50
   3  -9  -2   29.20    3.00
   3  -9  -2   29.10    2.40
   3  -9  -2   31.90    2.40
   9  -6   2   30.20    2.30
   9  -6   2   29.00    2.20
  -6  -3   2   28.30    4.00
   9  -6   2   30.90    2.20
   9  -6   2   28.20    1.90
   9  -6   2   30.40    2.20
   2  -9  -2   62.29    4.40
   2  -9  -2   70.59    3.50
   2  -9  -2   67.19    4.30
   2  -9  -2   65.79    3.10
   7   2  -2   64.09    3.30
   7   2  -2   67.19    3.40
   2  -9  -2   69.99    3.60
   9  -7   2   65.69    3.10
   9  -7   2   69.39    3.40
   9  -7   2   62.69    3.40
   9  -7   2   64.89    3.40
   9  -7   2   67.49    3.30
  -7  -2   2   62.49    5.40
  -7  -2   2   66.59    4.50
   1  -9  -2   11.00    2.00
   1  -9  -2    9.00    2.10
   1  -9  -2   11.10    1.40
   8   1  -2    8.60    1.40
   1  -9  -2   10.90    1.90
   8   1  -2    9.70    1.60
   9  -8   2   12.40    1.70
   9  -8   2    8.90    1.60
   9  -8   2    9.40    1.40
   9  -8   2    9.10    1.70
   9  -8   2   10.40    1.50
  -8  -1   2    9.90    2.40
  -8  -1   2    7.30    2.70
   0  -9  -2   30.10    2.70
   0  -9  -2   28.80    2.20
   9   0  -2   31.60    2.10
   0  -9  -2   28.10    1.80
   9   0  -2   32.30    2.00
   0  -9  -2   38.00    2.50
   9  -9   2   31.50    2.20
   9  -9   2   32.10    2.20
   9  -9   2   28.80    1.90
   9  -9   2   29.70    2.10
  -9   0   2   32.10    3.00
   9  -9   2   29.90    2.00
  -9   0   2   29.20    3.50
  10  -1  -2    1.80    0.90
  10  -1  -2    1.20    0.60
   1   9   2    2.10    0.80
   9 -10   2    1.70    0.60
 -10   1   2    0.40    0.70
   9 -10   2    0.90    0.70
   9 -10   2    1.20    0.60
   9 -10   2    0.70    0.60
   9 -10  -2    1.70    0.80
   9 -10  -2    2.90    0.90
   9 -10  -2    0.40    0.70
 -10   1  -2    1.10    0.70
   1   9  -2    2.00    0.80
   9 -10  -2    2.20    0.90
   9 -10  -2    2.50    0.80
  10  -1   2    1.30    0.50
  10  -1   2    2.70    0.70
 -10   2  -2   14.90    1.70
 -10   2  -2   12.50    2.00
   2   8  -2   13.40    1.40
   8 -10  -2   11.90    1.60
   8 -10  -2   12.40    1.30
   8 -10  -2   11.40    1.60
   8 -10  -2   13.70    1.90
  10  -2   2   13.70    1.40
  10  -2   2   14.60    1.40
   7 -10  -2   47.40    2.70
   7 -10  -2   48.80    2.50
   3   7  -2   48.50    2.50
   7 -10  -2   48.70    3.10
   7 -10  -2   52.49    3.00
 -10   3  -2   49.50    3.50
   7 -10  -2   51.89    2.90
 -10   3  -2   51.19    3.20
  10  -3   2   50.19    2.60
  10  -3   2   48.70    2.60
   4   6  -2    3.10    1.00
   6 -10  -2    1.10    0.90
   4   6  -2    2.60    0.90
   6 -10  -2    2.30    1.10
   6 -10  -2    5.10    1.30
 -10   4  -2    3.00    1.10
   6 -10  -2    0.30    0.90
   6 -10  -2    1.20    1.10
  10  -4   2    1.20    0.80
  10  -4   2    2.90    0.90
   5 -10  -2   85.09    3.90
   5 -10  -2   77.39    3.70
   5   5  -2   78.09    3.50
 -10   5  -2   82.79    4.30
   5 -10  -2   78.49    3.70
   5   5  -2   83.99    3.70
   5 -10  -2   82.39    3.50
   5 -10  -2   75.59    4.40
   5 -10  -2   79.19    4.60
  -5  -5   2   71.39    5.20
  10  -5   2   77.39    3.50
  10  -5   2   78.79    3.60
   4 -10  -2    6.00    1.20
   6   4  -2    6.30    1.10
   4 -10  -2   14.70    2.00
   4 -10  -2    3.20    1.30
   4 -10  -2    8.00    1.20
   4 -10  -2    5.30    1.30
   6   4  -2    7.00    1.30
 -10   6  -2    5.50    1.30
  10  -6   2    8.80    1.30
  -6  -4   2    6.20    2.30
  10  -6   2    4.30    1.00
  10  -6   2    5.50    1.10
  10  -6   2   10.60    1.30
  10  -6   2    8.20    1.20
 -10   7  -2   11.20    1.80
   3 -10  -2   17.30    1.90
   3 -10  -2   10.00    2.00
   7   3  -2   11.80    1.50
   3 -10  -2    9.50    2.00
   3 -10  -2   12.60    1.50
   3 -10  -2   13.00    1.80
   7   3  -2   11.10    1.40
  10  -7   2   14.90    1.40
  10  -7   2   13.00    1.30
  -7  -3   2   12.80    2.70
  10  -7   2   13.00    1.50
  10  -7   2    9.70    1.40
  10  -7   2   11.10    1.50
   8   2  -2   39.20    2.20
   2 -10  -2   38.30    2.80
   2 -10  -2   38.50    2.00
   2 -10  -2   35.00    2.90
   2 -10  -2   40.90    2.40
   8   2  -2   38.00    2.40
  -8  -2   2   35.50    2.60
  10  -8   2   38.80    2.00
  10  -8   2   39.10    2.30
  10  -8   2   36.20    2.10
  10  -8   2   36.60    2.20
  10  -8   2   38.90    2.30
  -8  -2   2   37.90    3.70
   1 -10  -2   46.30    2.40
   1 -10  -2   37.10    2.10
   1 -10  -2   39.80    2.70
   9   1  -2   37.60    2.00
   1 -10  -2   35.30    1.80
  10  -9   2   37.10    2.00
  10  -9   2   40.00    1.80
  10  -9   2   38.30    2.00
  -9  -1   2   38.90    3.30
  -9  -1   2   37.80    2.60
  10  -9   2   37.70    2.00
  10  -9   2   40.10    1.90
   7 -11  -2    5.00    0.80
   7 -11  -2    6.10    1.40
 -11   4  -2    4.40    0.90
   7 -11  -2    2.90    0.80
   4   7  -2    3.40    0.70
   7 -11  -2    5.80    1.00
  11  -4   2    2.70    0.60
  11  -4   2    4.20    0.80
   6 -11  -2   59.39    2.70
   5   6  -2   59.89    2.60
   6 -11  -2   60.49    2.70
   6 -11  -2   54.19    3.00
 -11   5  -2   60.49    3.10
   6 -11  -2   54.39    2.40
  11  -5   2   58.39    2.60
  11  -5   2   54.89    2.40
   5 -11  -2   19.40    1.60
 -11   6  -2   15.70    1.60
   5 -11  -2   15.70    1.40
   5 -11  -2   11.50    1.70
   5 -11  -2   15.50    1.50
   5 -11  -2   15.40    1.60
   6   5  -2   15.00    1.30
  -6  -5   2   13.90    2.00
  11  -6   2   15.50    1.30
  11  -6   2   15.10    1.20
   4 -11  -2   27.70    1.60
   7   4  -2   27.10    1.60
   4 -11  -2   29.00    1.70
   4 -11  -2   28.70    1.80
   4 -11  -2   27.30    2.10
   4 -11  -2   25.50    2.10
  -7  -4   2   24.00    2.40
  11  -7   2   29.20    1.60
  11  -7   2   27.30    1.60
   0   0  -3 9999.00  279.97
   0   0  -3 9742.23  291.47
   0   0   3 8535.95  287.07
   1  -1  -3 7558.94  231.28
  -1   0  -3 7732.53  234.38
   0   1  -3 7517.15  230.88
   1  -1  -3 7379.56  224.68
   0   1  -3 7265.57  220.58
   1   0   3 7083.69  234.08
   0  -1   3 7197.68  231.18
  -1   1   3 7672.83  233.78
   1   0  -3  207.68    7.80
  -1   1  -3  209.18    6.80
   0  -1  -3  205.98    7.80
   1   0  -3  205.88    7.20
  -1   1  -3  190.38    7.40
   0   1   3  190.08    6.20
   1  -1   3  190.28    8.30
  -1   0   3  195.48    7.50
   0   1   3  204.28    8.40
   2  -1  -3  119.49    4.90
  -1   2  -3  116.49    4.80
  -1  -1  -3  126.49    5.80
  -1  -1  -3  109.29    4.90
   2  -1  -3  121.09    5.10
   2  -1  -3  127.29    5.80
  -1   2  -3  126.99    5.10
   1   1   3  117.69    6.30
  -2   1   3  119.69    5.00
   1   1   3  114.69    3.90
   1  -2   3  117.29    6.30
  -2  -1  -3   35.90    2.50
   3  -2  -3   39.50    2.40
  -1   3  -3   40.50    3.00
   3  -2  -3   39.20    2.90
  -2  -1  -3   43.30    3.40
   2   1   3   36.30    3.50
   2   1   3   38.20    2.10
   1  -3   3   40.00    3.80
   1  -3   3   41.90    2.70
  -3   2   3   42.00    3.20
   2  -2  -3 5202.98  155.18
  -2   0  -3 4916.61  151.08
   2  -2  -3 5057.19  153.08
   2  -2  -3 4836.12  144.09
   2  -2  -3 4836.12  154.58
   0   2  -3 5059.99  144.59
   0  -2   3 4897.91  154.18
   2   0   3 4885.91  146.09
   0  -2   3 4619.74  150.78
   2   0   3 4895.41  152.38
   1  -2  -3 4889.21  145.19
   1  -2  -3 4399.96  135.59
   1  -2  -3 4507.25  143.49
   1   1  -3 4744.03  138.09
   1  -2  -3 4494.75  136.49
  -2   1  -3 4729.93  142.89
   2  -1   3 4272.67  135.59
  -1  -1   3 4583.94  145.59
  -1  -1   3 4522.85  140.69
  -1  -1   3 4572.24  145.19
  -2   2  -3   48.30    2.90
   0  -2  -3   62.39    3.50
   0  -2  -3   47.70    2.90
  -2   2  -3   50.99    2.80
   2   0  -3   52.09    3.20
   0  -2  -3   54.39    4.00
  -2   0   3   56.29    3.50
  -2   0   3   49.20    2.30
  -2   0   3   46.70    2.80
   0   2   3   47.80    2.40
   2  -2   3   51.49    4.10
   3  -1  -3 1121.79   33.40
  -1  -2  -3 1117.09   34.00
  -2   3  -3  998.70   31.60
  -1  -2  -3  981.40   32.70
  -2   3  -3 1083.09   33.10
   1   2   3 1015.90   31.70
  -3   1   3 1049.20   32.30
  -3   1   3 1050.49   34.00
   2  -3   3 1060.79   35.40
  -2   4  -3  151.48    7.30
   4  -2  -3  157.08    7.50
  -2  -2  -3  152.78    7.00
  -2  -2  -3  152.98    8.00
   2  -4   3  145.29    6.30
   2   2   3  152.68    6.30
  -4   2   3  164.48    8.10
   2   2   3  174.48    9.10
   2  -4   3  170.18    9.40
   5  -3  -3  209.28    9.80
  -3  -2  -3  225.18   11.00
  -2   5  -3  210.68    9.90
  -3  -2  -3  195.28    8.90
   2  -5   3  196.38    8.40
   3   2   3  183.68   10.60
  -5   3   3  195.58   10.10
   2  -5   3  225.78   12.20
  -1   4  -3  485.85   16.90
   4  -3  -3  473.45   16.70
  -3  -1  -3  465.85   17.80
  -3  -1  -3  426.76   15.50
   1  -4   3  451.85   15.80
   3   1   3  397.56   15.50
   1  -4   3  485.05   19.00
   3   1   3  466.75   17.90
  -4   3   3  437.36   16.80
   3  -3  -3 3481.45  105.19
   3  -3  -3 3846.72  107.59
   3  -3  -3 3657.93  106.29
  -3   0  -3 3412.56  105.19
  -3   0  -3 3600.84  107.69
   0   3  -3 3523.65  106.59
   0  -3   3 3673.33  105.39
  -3   3   3 3586.04  106.59
   0  -3   3 3574.34  105.99
   0  -3   3 3226.08  107.69
   3   0   3 3673.13  107.99
   3   0   3 3636.84  105.19
   2  -3  -3 2639.04   75.29
   2  -3  -3 2579.24   74.69
   2  -3  -3 2538.85   76.79
   1   2  -3 2490.65   75.39
   2  -3  -3 2498.25   74.49
  -3   1  -3 2509.55   75.99
  -1  -2   3 2499.25   75.69
  -1  -2   3 2616.74   75.19
  -1  -2   3 2338.47   74.69
   3  -1   3 2350.86   74.09
   3  -1   3 2487.75   76.69
   2   1  -3  420.36   15.00
   1  -3  -3  420.56   14.60
   1  -3  -3  432.86   14.90
   1  -3  -3  415.76   16.60
  -3   2  -3  424.56   15.10
  -2  -1   3  408.16   14.50
   3  -2   3  449.95   16.70
  -1   3   3  451.85   14.40
  -2  -1   3  438.06   15.50
  -2  -1   3  407.16   13.90
   0  -3  -3  130.99    7.70
  -3   3  -3  120.79    5.50
  -3   3  -3  119.19    5.90
   3   0  -3  137.69    6.50
   0  -3  -3  132.29    6.30
   0  -3  -3  133.69    6.10
  -3   0   3  139.09    7.00
   0   3   3  136.29    5.50
   3  -3   3  144.29    7.90
  -3   0   3  123.69    5.70
  -1  -3  -3  341.47   15.50
  -3   4  -3  360.36   13.60
  -1  -3  -3  365.46   13.50
  -1  -3  -3  356.26   14.10
   4  -1  -3  367.16   14.00
  -4   1   3  339.77   12.40
   3  -4   3  384.96   16.30
   1   3   3  368.66   12.60
  -4   1   3  352.46   14.70
   5  -2  -3   50.39    4.30
  -2  -3  -3   61.19    4.90
  -3   5  -3   53.99    4.30
  -2  -3  -3   52.19    4.10
   3  -5   3   54.19    5.70
   2   3   3   47.00    5.00
  -5   2   3   51.99    4.80
  -3   6  -3  175.38    9.70
   6  -3  -3  179.58    9.70
  -3  -3  -3  185.18    9.10
  -3  -3  -3  183.58   10.40
   3  -6   3  201.38   12.70
  -6   3   3  167.68   10.10
   7  -4  -3  666.43   20.70
  -4  -3  -3  670.63   24.40
  -4  -3  -3  649.93   20.60
   7  -4  -3  644.74   22.20
   7  -4  -3  679.43   21.10
   7  -4  -3  684.13   21.00
  -4  -3  -3  667.13   24.50
   7  -4  -3  694.03   21.00
  -4  -3  -3  683.93   22.70
   7  -4  -3  683.63   21.70
   3  -7   3  668.13   20.80
   3  -7   3  670.73   22.60
   3  -7   3  651.13   21.10
   3  -7   3  648.64   20.70
   3  -7   3  647.14   20.50
   4   3   3  679.93   21.00
   3  -7   3  683.63   22.20
  -2   6  -3  533.05   20.70
  -4  -2  -3  496.55   21.70
   6  -4  -3  496.45   20.30
  -4  -2  -3  526.25   19.10
  -6   4   3  517.35   20.80
   2  -6   3  551.74   24.20
   5  -4  -3  113.69    6.70
  -1   5  -3  116.39    6.90
  -4  -1  -3  103.69    5.60
  -4  -1  -3  112.49    7.60
   1  -5   3  101.89    8.00
   1  -5   3  111.09    6.10
  -5   4   3  101.99    6.60
   0   4  -3 1493.15   46.90
  -4   0  -3 1512.85   48.20
   4  -4  -3 1400.56   46.20
   4  -4  -3 1472.75   47.50
   0  -4   3 1457.65   48.70
  -4   4   3 1469.05   46.30
   4   0   3 1442.06   47.60
   0  -4   3 1484.85   45.90
   3  -4  -3 1404.96   45.40
   1   3  -3 1391.16   43.70
   3  -4  -3 1357.06   42.10
  -4   1  -3 1377.26   44.60
  -3   4   3 1384.66   42.90
  -1  -3   3 1346.17   42.70
   4  -1   3 1370.56   42.30
  -1  -3   3 1350.16   43.00
   4  -1   3 1420.56   44.70
  -1  -3   3 1344.27   44.30
  -4   2  -3 1758.62   55.49
   2  -4  -3 1757.52   54.19
   2  -4  -3 1826.72   57.59
   2  -4  -3 1820.02   54.29
   2   2  -3 1823.22   55.29
   4  -2   3 1837.12   56.89
  -2  -2   3 1690.33   55.19
  -2  -2   3 1711.03   54.39
  -2   4   3 1746.53   54.49
   4  -2   3 1829.62   54.29
   3   1  -3  166.48    8.00
   1  -4  -3  163.08    9.50
  -4   3  -3  159.88    7.50
   1  -4  -3  172.68    7.50
   1  -4  -3  157.68    7.20
  -4   3  -3  155.58    7.30
  -3  -1   3  176.38    8.70
  -3  -1   3  162.98    7.20
  -1   4   3  166.28    7.20
   4  -3   3  167.18    9.20
   0  -4  -3   28.40    2.80
  -4   4  -3   28.90    2.90
   0  -4  -3   26.40    3.90
   0  -4  -3   28.10    3.20
   4   0  -3   33.20    3.20
   0   4   3   31.40    2.70
   4  -4   3   26.10    3.70
  -4   0   3   32.10    3.70
  -4   0   3   24.20    2.40
  -1  -4  -3   71.09    6.60
  -1  -4  -3   72.69    5.10
  -4   5  -3   72.59    5.20
   5  -1  -3   71.39    5.20
   4  -5   3   73.29    6.70
  -5   1   3   74.49    6.00
  -2  -4  -3  185.48    9.30
  -4   6  -3  175.08    9.60
   6  -2  -3  174.38    9.70
  -6   2   3  183.58   10.70
   2   4   3  172.48   11.30
   4  -6   3  163.38   11.70
   7  -3  -3  547.55   17.70
  -3  -4  -3  577.74   17.70
  -3  -4  -3  529.25   20.80
  -3  -4  -3  565.84   21.60
   7  -3  -3  546.75   19.10
   7  -3  -3  568.84   18.40
  -3  -4  -3  550.94   17.30
   7  -3  -3  566.94   17.60
   7  -3  -3  563.34   17.60
   4  -7   3  537.65   17.40
   4  -7   3  542.55   17.40
   4  -7   3  564.34   19.00
   4  -7   3  535.55   17.70
   4  -7   3  558.94   19.10
   4  -7   3  541.05   17.20
   4  -7   3  560.24   17.60
   8  -4  -3  110.19    4.90
   8  -4  -3  110.89    4.80
  -4  -4  -3  109.29    7.30
   8  -4  -3  107.59    6.00
   8  -4  -3  108.19    4.70
  -4   8  -3  101.09    4.60
  -4  -4  -3  101.79    4.30
   8  -4  -3  113.09    5.50
   8  -4  -3  130.59    5.80
  -4  -4  -3  103.49    7.30
   4  -8   3  105.39    5.80
   4   4   3  113.49    4.90
   4  -8   3  107.19    5.80
   4  -8   3  107.29    4.60
   4  -8   3  108.39    5.00
   4  -8   3  103.09    4.30
   4  -8   3  106.89    4.60
   9  -5  -3   91.99    4.30
  -4   9  -3   81.29    5.20
  -5  -4  -3   86.69    6.50
   9  -5  -3   93.49    4.10
   9  -5  -3   92.99    4.20
   9  -5  -3  104.49    5.20
   9  -5  -3   91.49    4.40
   4  -9   3   93.79    5.30
   5   4   3   89.89    4.10
   5   4   3   98.99    4.40
   4  -9   3   87.69    4.10
   4  -9   3   95.89    5.40
   4  -9   3   91.79    4.00
   4  -9   3   91.49    3.90
   4  -9   3   92.09    4.40
   8  -5  -3  289.57   10.10
  -3   8  -3  270.07    9.70
   8  -5  -3  291.67   10.00
   8  -5  -3  296.57    9.80
  -5  -3  -3  295.47   11.40
   8  -5  -3  287.77   10.70
   8  -5  -3  285.77    9.90
  -5  -3  -3  289.67   13.40
   3  -8   3  295.77   10.20
   3  -8   3  282.57    9.90
   3  -8   3  276.47    9.70
   5   3   3  283.37   10.00
   3  -8   3  286.67   11.60
   5   3   3  270.27    9.70
   3  -8   3  279.77   11.10
   3  -8   3  281.87    9.50
  -5  -2  -3  163.38    8.60
   7  -5  -3  158.98    6.00
   7  -5  -3  152.88    6.60
  -5  -2  -3  153.28    7.40
   7  -5  -3  158.78    6.20
   7  -5  -3  156.38    6.10
   7  -5  -3  159.98    6.10
   2  -7   3  158.68    6.10
   5   2   3  159.28    6.00
   2  -7   3  158.28    6.60
   2  -7   3  153.58    6.90
   5   2   3  157.78    6.10
   2  -7   3  156.58    6.30
   2  -7   3  154.58    5.90
   2  -7   3  157.48    7.40
   6  -5  -3  172.28    9.70
  -5  -1  -3  162.58   10.70
  -1   6  -3  179.78   10.00
   1  -6   3  174.08    8.90
   1  -6   3  160.18   11.60
  -5   0  -3  426.06   18.90
   0   5  -3  424.16   17.60
   0  -5   3  436.06   19.80
   0  -5   3  461.85   17.10
  -5   1  -3  425.66   17.70
   4  -5  -3  419.26   18.20
   1   4  -3  417.46   16.70
  -1  -4   3  441.06   16.20
  -1  -4   3  383.26   17.30
  -4   5   3  409.86   16.30
  -5   2  -3  758.62   28.60
   2   3  -3  821.42   28.30
   3  -5  -3  826.82   26.70
   3  -5  -3  785.52   30.60
  -3   5   3  809.52   27.80
  -2  -3   3  859.31   27.70
   5  -2   3  861.11   27.30
   2  -5  -3  218.88    9.30
  -5   3  -3  205.48    9.90
   2  -5  -3  220.38   12.20
   3   2  -3  206.98   10.00
  -3  -2   3  225.28   10.60
   5  -3   3  204.58   10.90
   5  -3   3  205.98    9.30
  -2   5   3  209.28    9.40
  -3  -2   3  205.78    9.20
   1  -5  -3    7.50    2.60
   1  -5  -3    6.30    1.70
  -5   4  -3    5.90    1.70
   4   1  -3    6.20    2.00
  -1   5   3    4.60    1.50
   5  -4   3    5.60    2.20
  -4  -1   3    5.40    2.00
  -4  -1   3    7.10    1.60
   0  -5  -3  310.97   16.70
  -5   5  -3  317.57   13.90
   5   0  -3  334.57   14.50
   0  -5  -3  346.27   14.00
   5  -5   3  328.47   16.50
  -5   0   3  324.87   15.40
  -5   6  -3  388.86   17.20
  -1  -5  -3  426.16   17.30
   6  -1  -3  422.96   17.80
  -6   1   3  412.46   19.10
   5  -6   3  434.46   20.90
   7  -2  -3   14.00    1.50
  -2  -5  -3   14.40    3.00
   7  -2  -3   13.40    1.60
  -2  -5  -3   14.80    1.50
   7  -2  -3   14.70    1.90
  -2  -5  -3   16.90    2.70
   7  -2  -3   13.30    1.60
  -2  -5  -3    9.40    1.60
   5  -7   3   13.10    1.40
   5  -7   3   14.70    1.50
   5  -7   3   15.60    1.70
   5  -7   3   14.20    2.10
   5  -7   3   14.40    1.70
   5  -7   3   12.80    2.00
   5  -7   3   15.10    1.50
  -3  -5  -3  151.88    8.70
   8  -3  -3  153.18    6.00
   8  -3  -3  151.98    7.40
   8  -3  -3  155.18    6.00
  -3  -5  -3  154.58    9.30
   8  -3  -3  152.98    6.10
  -3  -5  -3  142.69    5.60
   8  -3  -3  150.18    6.70
   5  -8   3  151.38    6.20
   5  -8   3  154.88    6.00
   5  -8   3  146.59    5.90
   5  -8   3  152.58    5.70
   5  -8   3  152.08    7.20
   5  -8   3  151.18    5.90
   5  -8   3  147.79    7.10
   9  -4  -3   49.10    3.50
   9  -4  -3   37.20    2.70
  -5   9  -3   36.90    2.50
  -4  -5  -3   36.50    2.30
  -4  -5  -3   37.40    4.30
   9  -4  -3   38.50    2.50
   9  -4  -3   38.20    2.60
   9  -4  -3   35.20    3.30
   5  -9   3   38.80    3.00
   5  -9   3   39.40    2.50
   5  -9   3   40.20    2.40
   5  -9   3   38.00    3.20
   4   5   3   40.90    2.80
   5  -9   3   39.80    3.60
   5  -9   3   41.10    2.50
  10  -5  -3   23.70    2.60
  10  -5  -3   22.50    1.90
  10  -5  -3   20.10    1.80
  -5  -5  -3   19.60    3.10
  10  -5  -3   21.80    1.90
   5 -10   3   18.80    1.90
   5 -10   3   20.30    2.10
   5 -10   3   22.40    2.60
   5   5   3   23.40    1.80
   5   5   3   22.30    1.90
   5 -10   3   21.70    1.70
   5 -10   3   23.20    1.80
   5 -10   3   20.70    2.40
  -5  11  -3   29.90    1.90
  11  -6  -3   28.00    1.60
  11  -6  -3   27.10    1.70
  -6  -5  -3   25.80    2.60
  11  -6  -3   25.90    1.60
   6   5   3   27.30    1.60
   5 -11   3   27.00    2.10
   5 -11   3   27.50    2.00
   5 -11   3   25.90    1.60
  10  -6  -3    6.90    1.20
  10  -6  -3    6.20    1.20
  10  -6  -3    4.20    1.10
  10  -6  -3    3.70    1.20
  -6  -4  -3    3.30    1.30
   4 -10   3    8.10    1.10
   4 -10   3    4.20    1.20
   6   4   3    7.30    1.30
   6   4   3    4.00    0.90
   4 -10   3    3.80    1.10
   4 -10   3    9.20    1.40
   4 -10   3    4.80    1.20
  -6  -3  -3  144.79    7.00
  -6  -3  -3  143.39    8.60
   9  -6  -3  162.78    6.00
   9  -6  -3  163.58    6.70
   9  -6  -3  148.29    5.80
   9  -6  -3  154.88    6.20
   9  -6  -3  154.88    6.00
   3  -9   3  152.78    6.00
   3  -9   3  151.48    7.00
   3  -9   3  144.99    5.50
   3  -9   3  157.78    7.50
   6   3   3  157.88    6.10
   6   3   3  152.08    5.80
   3  -9   3  148.99    5.70
   8  -6  -3  219.28    8.10
  -6  -2  -3  213.68    9.40
   8  -6  -3  222.18    7.90
   8  -6  -3  223.78    8.00
   8  -6  -3  212.48    8.40
  -6  -2  -3  204.48   10.80
   8  -6  -3  213.88    7.70
   2  -8   3  212.38    7.70
   6   2   3  214.08    7.70
   2  -8   3  211.48    7.80
   6   2   3  217.28    7.90
   2  -8   3  214.38    8.90
   2  -8   3  209.48    9.30
   7  -6  -3  899.21   27.10
   7  -6  -3  874.61   27.00
   7  -6  -3  935.31   27.30
  -6  -1  -3  892.21   29.30
  -6  -1  -3  865.21   30.60
   7  -6  -3  888.01   27.40
   6   1   3  839.72   26.70
   1  -7   3  874.81   31.10
   1  -7   3  904.41   27.20
   6   1   3  871.71   27.00
   1  -7   3  861.41   28.80
   6   1   3  893.41   27.30
   1  -7   3  861.61   28.10
   6  -6  -3  137.19    5.50
   6  -6  -3  133.69    5.30
   6  -6  -3  131.69    5.30
   0   6  -3  127.49    5.50
   6  -6  -3  135.99    5.40
  -6   0  -3  134.59    6.80
   6   0   3  128.69    5.20
   0  -6   3  138.89    8.20
   0  -6   3  133.89    5.40
   6   0   3  141.29    5.50
   0  -6   3  151.28    6.40
   6   0   3  135.39    5.10
  -6   1  -3   27.60    4.00
   1   5  -3   26.40    3.70
  -1  -5   3   28.80    3.60
  -5   6   3   31.50    4.00
   4  -6  -3   59.89    6.40
  -6   2  -3   50.89    5.30
   2   4  -3   52.79    5.00
  -4   6   3   60.19    5.10
  -2  -4   3   63.19    5.00
  -6   3  -3   14.10    2.70
   3   3  -3   12.90    3.00
   3  -6  -3   14.10    4.00
   6  -3   3   21.40    4.40
  -3   6   3   14.90    2.60
  -3  -3   3   12.90    2.40
   2  -6  -3  467.05   22.20
   2  -6  -3  456.65   17.60
  -6   4  -3  477.95   18.20
   4   2  -3  427.76   18.50
  -2   6   3  436.16   17.70
  -4  -2   3  456.85   19.40
  -4  -2   3  475.95   17.70
   5   1  -3   30.30    4.00
  -6   5  -3   31.30    3.80
   1  -6  -3   32.90    3.70
   1  -6  -3   35.60    5.60
  -5  -1   3   32.30    4.60
  -5  -1   3   30.60    3.20
   6   0  -3  516.25   16.80
   0  -6  -3  508.45   17.80
   0  -6  -3  516.55   16.60
   6   0  -3  539.35   16.70
   0  -6  -3  525.45   16.70
   6   0  -3  509.85   16.50
   6   0  -3  532.15   18.40
   0  -6  -3  555.14   21.00
   6   0  -3  503.75   17.10
   0  -6  -3  531.35   16.40
   0  -6  -3  502.45   18.00
   6  -6   3  525.35   16.80
   6  -6   3  528.15   16.70
   6  -6   3  526.85   16.40
   6  -6   3  511.85   16.50
   6  -6   3  534.25   17.90
   6  -6   3  533.95   16.80
   7  -1  -3  214.88    7.70
  -1  -6  -3  217.98    8.80
   7  -1  -3  198.48    8.20
   7  -1  -3  204.88    7.50
  -1  -6  -3  207.68    7.30
   7  -1  -3  206.88    7.80
  -1  -6  -3  203.58    7.50
  -1  -6  -3  214.78    7.80
   7  -1  -3  212.28    9.30
  -1  -6  -3  212.78   11.40
  -1  -6  -3  207.48    8.60
   6  -7   3  210.78    7.80
  -7   1   3  215.38   10.30
   6  -7   3  204.08    7.60
   6  -7   3  211.68    7.50
   6  -7   3  206.48    8.80
   6  -7   3  211.48    7.80
   6  -7   3  209.68    7.40
   8  -2  -3   92.49    5.00
  -2  -6  -3   95.69    4.20
   8  -2  -3   95.89    5.70
   8  -2  -3   97.39    4.30
   8  -2  -3  100.39    4.60
  -2  -6  -3   96.79    6.60
   8  -2  -3   99.69    4.40
  -2  -6  -3   91.59    4.50
  -2  -6  -3   97.99    7.40
   6  -8   3   96.79    4.10
   6  -8   3  103.39    5.50
   6  -8   3  101.39    4.50
   6  -8   3  101.39    4.30
   6  -8   3  101.19    4.60
   6  -8   3  100.69    4.40
   9  -3  -3   16.10    2.00
   9  -3  -3   13.60    2.30
   9  -3  -3   17.20    1.90
   9  -3  -3   19.70    1.80
  -3  -6  -3   11.70    1.60
  -3  -6  -3   18.50    3.10
   6  -9   3   19.20    1.80
   6  -9   3   17.50    2.40
   6  -9   3   18.20    2.50
   6  -9   3   19.90    1.80
   6  -9   3   18.30    2.20
   6  -9   3   17.50    1.80
  10  -4  -3   11.90    2.20
  10  -4  -3   14.50    1.70
  -4  -6  -3   12.90    2.60
  -6  10  -3   13.80    1.60
  10  -4  -3   15.90    1.50
  10  -4  -3   14.80    1.60
 -10   4   3   12.90    2.60
   6 -10   3   14.10    2.30
   6 -10   3   13.10    1.90
   6 -10   3   17.40    1.60
   6 -10   3   15.70    1.70
   4   6   3   13.10    1.50
   4   6   3   16.80    1.80
   6 -10   3   14.30    1.50
   6 -10   3   13.90    1.90
  11  -5  -3  166.08    5.40
  -5  -6  -3  133.09    8.10
  11  -5  -3  136.09    5.20
  11  -5  -3  164.28    5.30
   6 -11   3  168.18    5.20
   6 -11   3  159.28    6.10
   5   6   3  162.78    5.30
   6 -11   3  138.29    5.20
  -7  -4  -3   15.40    2.10
  11  -7  -3   16.70    1.40
  -4  11  -3   18.30    1.40
  11  -7  -3   16.80    1.30
  11  -7  -3   16.40    1.30
   7   4   3   16.70    1.20
   4 -11   3   23.50    2.40
   4 -11   3   15.30    1.60
  -7  -3  -3   15.00    2.80
  10  -7  -3   15.80    1.40
  10  -7  -3   14.40    1.70
  -3  10  -3   18.30    1.80
  10  -7  -3   14.50    1.60
  10  -7  -3   16.00    1.80
   3 -10   3   17.90    2.10
   7   3   3   14.90    1.60
   3 -10   3   14.10    1.60
   7   3   3   19.30    1.50
   3 -10   3   17.00    2.30
  -7  -2  -3   12.90    2.10
   9  -7  -3   10.90    1.90
  -7  -2  -3   12.80    3.00
   9  -7  -3   14.20    1.90
  -2   9  -3   17.60    2.10
   9  -7  -3   15.00    1.80
   9  -7  -3   15.10    1.70
   2  -9   3   14.40    2.40
   2  -9   3   15.80    2.10
   2  -9   3   12.50    1.70
   7   2   3   13.80    1.60
   7   2   3   12.90    1.80
   8  -7  -3  401.46   13.20
  -7  -1  -3  397.06   15.10
   8  -7  -3  388.96   13.10
   8  -7  -3  405.16   13.50
  -7  -1  -3  384.86   16.10
   8  -7  -3  399.16   13.30
  -1   8  -3  404.16   13.50
   1  -8   3  397.56   14.80
   1  -8   3  414.66   13.30
   7   1   3  394.66   13.10
   7   1   3  405.06   13.30
  -7   0  -3  403.76   14.20
  -7   0  -3  415.16   15.60
   7  -7  -3  417.16   13.80
   7  -7  -3  415.76   13.50
   0   7  -3  405.36   13.80
  -7   0  -3  395.76   16.10
   7  -7  -3  422.56   13.60
   7  -7  -3  411.46   14.50
   7  -7  -3  421.26   13.60
   0  -7   3  418.86   13.60
   7   0   3  403.26   13.40
   0  -7   3  416.16   17.70
   7   0   3  415.56   13.70
   0  -7   3  419.56   14.90
   7   0   3  386.46   13.00
   6  -7  -3  145.59    5.60
   6  -7  -3  143.99    5.70
  -7   1  -3  131.29    7.00
   6  -7  -3  138.89    5.20
   6  -7  -3  142.49    5.60
   1   6  -3  132.29    5.70
   6  -7  -3  134.89    5.40
   7  -1   3  142.59    5.60
   7  -1   3  137.59    5.50
  -1  -6   3  145.69    8.80
   7  -1   3  133.39    5.20
   2   5  -3    7.40    1.30
   5  -7  -3    6.70    1.20
   5  -7  -3   10.00    1.50
   5  -7  -3    7.80    1.30
   5  -7  -3    6.60    1.60
   5  -7  -3    7.20    1.30
  -2  -5   3    7.90    2.40
   7  -2   3    7.60    1.30
   7  -2   3    6.80    1.20
   7  -2   3    7.10    1.20
   4  -7  -3   49.40    2.50
   4  -7  -3   44.10    2.60
   3   4  -3   47.00    2.70
   4  -7  -3   40.60    3.30
   4  -7  -3   44.00    2.50
  -7   3  -3   40.10    5.90
   4  -7  -3   43.60    3.30
   4  -7  -3   45.30    2.70
   7  -3   3   43.20    2.60
  -3  -4   3   45.80    4.30
  -3  -4   3   44.90    4.60
   7  -3   3   42.70    2.50
   7  -3   3   43.70    2.40
  -4   7   3   52.09    7.90
   7  -3   3   46.60    3.10
   3  -7  -3  201.18    7.10
   3  -7  -3  195.78    7.10
   3  -7  -3  199.78    6.90
   4   3  -3  195.48    7.20
   3  -7  -3  193.38    8.40
   3  -7  -3  191.08    8.20
   7  -4   3  192.88    6.80
   7  -4   3  195.98    7.00
   7  -4   3  190.08    7.10
   7  -4   3  191.18    7.00
  -4  -3   3  190.38   10.00
  -4  -3   3  189.38    9.90
   5   2  -3  187.58    7.20
   2  -7  -3  202.28   10.20
   5   2  -3  199.88    8.10
   5   2  -3  192.68    7.00
   2  -7  -3  191.08    8.20
   2  -7  -3  187.68    8.40
   2  -7  -3  196.78    7.10
   2  -7  -3  191.78    7.00
   2  -7  -3  186.48    6.80
  -5  -2   3  187.58   10.10
   7  -5   3  187.88    7.00
   7  -5   3  187.28    7.00
  -5  -2   3  186.38    9.60
   7  -5   3  185.18    6.70
   7  -5   3  187.38    6.90
   7  -5   3  187.38    7.00
   1  -7  -3    8.90    1.30
   1  -7  -3    5.50    2.10
   1  -7  -3    9.90    1.90
   1  -7  -3    8.10    1.50
   1  -7  -3    9.40    1.50
   6   1  -3    8.00    1.30
   1  -7  -3    8.30    1.80
   6   1  -3    8.70    1.50
   7  -6   3    7.70    1.40
  -6  -1   3   12.00    2.80
   7  -6   3    8.00    1.20
   7  -6   3    9.00    1.30
   7  -6   3    6.60    1.30
   7  -6   3    8.00    1.90
   7  -6   3   10.10    1.40
   7   0  -3    3.80    1.10
   0  -7  -3    5.40    1.10
   0  -7  -3    3.90    2.00
   0  -7  -3    3.70    1.20
   0  -7  -3    4.40    1.20
   0  -7  -3    6.60    1.70
   7   0  -3    4.40    1.10
   7   0  -3    2.20    1.00
   7   0  -3    1.10    1.00
   7  -7   3    4.60    1.10
   7  -7   3    1.60    1.00
   7  -7   3    4.20    1.30
   7  -7   3    3.40    1.00
   7  -7   3    3.20    0.90
   7  -7   3    5.70    1.20
   8  -1  -3    5.10    1.20
  -1  -7  -3    3.70    1.30
  -1  -7  -3    6.70    1.20
   8  -1  -3    4.10    1.10
  -1  -7  -3    4.50    2.20
   8  -1  -3    2.60    1.20
   7  -8   3    4.30    1.00
   7  -8   3    7.30    1.40
   7  -8   3    4.70    1.00
   7  -8   3    4.00    1.20
   7  -8   3    4.20    1.30
   7  -8   3    4.20    1.00
  -2  -7  -3  227.58    8.00
   9  -2  -3  227.58    8.90
   9  -2  -3  239.68    8.50
   9  -2  -3  222.98    8.10
   9  -2  -3  238.78    8.40
   7  -9   3  239.98    8.20
   7  -9   3  234.58    8.40
   7  -9   3  245.68    8.60
   7  -9   3  239.08    8.30
   7  -9   3  243.48    9.60
   7  -9   3  245.58    8.40
  10  -3  -3   24.90    1.90
  -7  10  -3   25.80    2.00
  10  -3  -3   21.90    1.90
  10  -3  -3   21.00    2.20
  10  -3  -3   28.60    1.90
   3   7   3   30.30    2.10
   7 -10   3   24.50    1.80
   7 -10   3   26.70    1.90
 -10   3   3   27.10    3.00
   7 -10   3   23.20    2.40
   7 -10   3   25.20    2.20
   7 -10   3   25.80    1.80
  11  -4  -3   16.00    1.30
  11  -4  -3   18.10    1.30
   4   7   3   18.80    1.30
   7 -11   3   17.60    1.70
   7 -11   3   17.80    1.20
  10  -8  -3   16.60    1.50
  -8  -2  -3   15.10    2.70
  -8  -2  -3   17.20    2.00
  10  -8  -3   16.80    1.40
  -2  10  -3   18.10    1.70
  10  -8  -3   18.50    1.80
  10  -8  -3   15.00    1.70
   8   2   3   17.60    1.40
   8   2   3   18.50    1.50
   2 -10   3   17.20    2.10
  -1   9  -3    3.80    1.10
   9  -8  -3    2.80    1.00
   9  -8  -3    3.10    0.90
  -8  -1  -3    3.10    1.10
   9  -8  -3    2.90    1.10
   9  -8  -3    3.50    1.20
  -8  -1  -3    2.00    1.10
   8   1   3    3.00    0.90
   1  -9   3    3.40    1.10
   8   1   3    6.20    1.10
   8  -8  -3   38.30    2.60
  -8   0  -3   39.10    3.60
   8  -8  -3   39.00    2.50
   8  -8  -3   36.80    2.70
   8  -8  -3   37.50    2.70
   0   8  -3   44.60    2.90
   8   0   3   38.70    2.40
   8   0   3   41.90    2.70
  -8   1  -3  128.69    6.90
   7  -8  -3  133.49    5.40
   7  -8  -3  126.29    5.50
   1   7  -3  127.69    5.50
   7  -8  -3  133.19    5.40
   7  -8  -3  128.49    5.00
   7  -8  -3  124.39    5.20
  -8   1  -3  130.49    6.00
  -1  -7   3  134.89    8.70
   8  -1   3  132.39    5.40
   8  -1   3  128.19    5.20
  -8   2  -3   31.00    3.30
   6  -8  -3   33.20    2.10
   6  -8  -3   30.80    2.40
   6  -8  -3   30.20    2.50
   6  -8  -3   33.80    2.90
   6  -8  -3   33.30    2.40
   2   6  -3   34.50    2.50
  -8   2  -3   35.50    3.10
   8  -2   3   31.80    2.20
   8  -2   3   32.20    2.00
  -2  -6   3   33.70    4.30
   8  -2   3   33.30    2.40
   5  -8  -3    5.00    1.20
   5  -8  -3    6.70    1.70
   5  -8  -3    6.50    1.10
   5  -8  -3    4.60    1.20
   5  -8  -3    5.40    1.20
   3   5  -3    7.20    1.40
  -3  -5   3    5.50    2.20
   8  -3   3    6.40    1.20
   8  -3   3    5.10    1.10
   8  -3   3    6.70    1.10
   4  -8  -3  103.19    4.60
   4  -8  -3  104.59    4.30
   4  -8  -3  101.89    4.40
   4  -8  -3  103.99    5.70
   4  -8  -3  101.99    5.60
   4  -8  -3   99.99    4.60
   4   4  -3   96.49    4.50
   8  -4   3  101.79    4.20
  -4  -4   3   96.79    6.80
   8  -4   3  104.19    4.50
   8  -4   3  101.09    4.40
  -4  -4   3   97.29    7.20
   5   3  -3  227.58    8.10
  -8   5  -3  221.88    8.80
   5   3  -3  221.58    8.20
   3  -8  -3  219.98    8.10
   3  -8  -3  219.98    9.60
   3  -8  -3  222.98    7.80
   3  -8  -3  215.18    8.00
   3  -8  -3  223.58    9.40
  -5  -3   3  220.28   11.30
   8  -5   3  217.28    8.00
   8  -5   3  230.38    8.10
  -5  -3   3  218.28   11.20
   8  -5   3  219.08    7.70
   8  -5   3  221.48    7.90
   6   2  -3   99.09    4.60
   2  -8  -3  108.39    4.70
   2  -8  -3  101.09    5.70
  -8   6  -3  100.79    5.10
   2  -8  -3   95.89    5.70
   2  -8  -3  102.99    4.30
   2  -8  -3  110.19    4.70
   6   2  -3  103.49    4.50
   8  -6   3  107.79    4.60
   8  -6   3  107.19    4.60
  -6  -2   3   96.49    7.10
   8  -6   3  100.79    4.60
   8  -6   3  104.89    4.30
   8  -6   3  103.49    4.40
   1  -8  -3  116.79    5.00
   1  -8  -3   99.29    7.60
   7   1  -3  121.19    4.90
   1  -8  -3  115.99    4.60
   1  -8  -3  115.39    4.90
   1  -8  -3  112.19    5.90
   7   1  -3  113.09    4.90
   1  -8  -3  108.39    6.10
   8  -7   3  113.99    4.90
  -7  -1   3  107.59    7.50
   8  -7   3  119.69    4.60
   8  -7   3  110.79    4.90
   8  -7   3  113.29    4.70
   8  -7   3  111.99    4.90
   0  -8  -3   34.70    2.70
   0  -8  -3   37.70    2.30
   0  -8  -3   33.10    3.20
   8   0  -3   33.30    2.30
   8   0  -3   32.10    2.40
   0  -8  -3   34.50    3.00
   8  -8   3   35.00    2.50
   8  -8   3   33.00    2.40
   8  -8   3   31.20    2.50
   8  -8   3   31.80    2.90
  -8   0   3   28.20    4.00
   8  -8   3   33.50    2.20
   8  -8   3   36.00    2.30
  -1  -8  -3   32.30    2.20
  -1  -8  -3   43.80    3.00
   9  -1  -3   38.00    2.40
   9  -1  -3   36.10    2.30
  -1  -8  -3   34.50    2.50
   9  -1  -3   35.50    2.50
   8  -9   3   37.00    2.90
   8  -9   3   37.60    2.50
   8  -9   3   35.00    2.20
  -9   1   3   36.90    3.50
   8  -9   3   36.60    2.50
   8  -9   3   38.20    2.30
   8  -9   3   38.50    2.40
  10  -2  -3   52.39    2.60
  10  -2  -3   54.49    2.70
  -8  10  -3   56.09    2.80
   2   8   3   56.29    2.80
   8 -10   3   52.49    2.50
   8 -10   3   53.99    2.80
   8 -10   3   54.09    2.60
   8 -10   3   55.59    2.50
 -10   2   3   51.99    3.60
   8 -10   3   54.69    3.20
  10  -9  -3    7.20    1.20
   1 -10   3    9.00    1.20
   9  -9  -3  155.88    5.60
   0   9  -3  150.58    5.70
   9  -9  -3  156.18    5.80
   9  -9  -3  154.88    5.70
  -9   0  -3  152.68    6.80
   9   0   3  145.69    5.40
   9   0   3  156.08    5.60
   0  -9   3  167.58    6.30
   8  -9  -3    3.10    0.90
   8  -9  -3    3.00    1.10
   8  -9  -3    2.70    1.20
   1   8  -3    3.90    1.10
   8  -9  -3    5.60    1.20
  -9   1  -3    2.90    1.10
   8  -9  -3    2.70    0.80
  -9   1  -3    2.90    0.90
   9  -1   3    3.50    1.00
   9  -1   3    4.20    1.00
   7  -9  -3    6.40    1.20
  -9   2  -3    9.20    1.90
   2   7  -3    6.10    1.20
   7  -9  -3    6.60    1.10
  -9   2  -3    8.50    2.20
   7  -9  -3    7.70    1.40
   7  -9  -3    6.20    1.30
   9  -2   3    9.90    1.50
   9  -2   3    8.60    1.30
   6  -9  -3  127.89    5.30
   6  -9  -3  127.39    6.20
   6  -9  -3  131.59    5.10
  -9   3  -3  134.29    6.60
   6  -9  -3  130.29    5.40
   6  -9  -3  129.89    5.50
  -9   3  -3  130.29    6.00
   3   6  -3  131.79    5.40
   9  -3   3  133.79    5.20
   9  -3   3  128.19    4.80
   9  -3   3  137.89    5.40
   5  -9  -3  129.99    5.40
  -9   4  -3  153.78    7.80
   4   5  -3  126.69    5.40
   5  -9  -3  130.49    5.10
   5  -9  -3  126.79    5.40
   5  -9  -3  129.79    5.30
   5  -9  -3  131.49    6.50
  -9   4  -3  131.19    6.10
   5  -9  -3  130.69    6.30
   9  -4   3  126.89    4.90
   9  -4   3  131.49    5.20
  -4  -5   3  121.19    7.40
   9  -4   3  130.49    5.30
   5   4  -3    1.30    0.90
  -9   5  -3    1.50    1.00
   5   4  -3    1.20    0.90
   4  -9  -3    1.50    1.00
   4  -9  -3    0.50    0.90
   4  -9  -3    0.70    0.90
   4  -9  -3    0.80    1.10
   4  -9  -3    1.70    1.20
   9  -5   3    1.40    0.80
   9  -5   3    1.90    0.90
   9  -5   3    2.90    1.00
  -5  -4   3    0.20    0.80
   9  -5   3    1.10    0.90
   3  -9  -3   74.99    3.70
   6   3  -3   67.39    3.50
   6   3  -3   69.29    3.50
  -9   6  -3   69.69    4.10
   3  -9  -3   71.89    3.40
   3  -9  -3   72.39    4.80
   3  -9  -3   72.99    4.60
   3  -9  -3   67.09    3.60
   9  -6   3   70.69    3.50
   9  -6   3   70.79    3.60
   9  -6   3   77.99    3.40
  -6  -3   3   69.69    5.80
   9  -6   3   83.69    4.30
   9  -6   3   72.39    3.40
   7   2  -3   24.10    2.10
   7   2  -3   25.90    2.10
   2  -9  -3   25.00    2.90
   2  -9  -3   27.60    2.20
   2  -9  -3   25.70    2.30
   2  -9  -3   25.00    2.00
   2  -9  -3   24.90    3.00
   9  -7   3   26.00    1.90
   9  -7   3   28.80    2.20
   9  -7   3   26.90    2.00
  -7  -2   3   23.10    2.90
   9  -7   3   28.90    2.00
   9  -7   3   21.00    2.10
  -7  -2   3   23.50    3.50
   1  -9  -3   33.00    2.10
   1  -9  -3   33.70    2.50
   8   1  -3   31.10    2.20
   1  -9  -3   31.20    3.00
   8   1  -3   29.80    2.20
   1  -9  -3   30.20    2.90
   9  -8   3   29.90    2.00
   9  -8   3   26.10    2.10
   9  -8   3   28.60    2.10
  -8  -1   3   29.60    3.10
   9  -8   3   29.40    2.20
   9  -8   3   29.20    2.00
  -8  -1   3   29.10    3.80
   0  -9  -3    5.70    1.00
   9   0  -3    4.10    0.90
   0  -9  -3    7.40    1.70
   9   0  -3    7.10    1.10
   0  -9  -3    5.90    1.20
   9  -9   3    7.50    1.20
  -9   0   3    3.10    1.20
   9  -9   3    5.70    1.10
   9  -9   3    6.20    1.10
   9  -9   3    5.10    1.00
   9  -9   3    5.10    1.00
  -9   0   3    3.70    1.20
  -9  10  -3   53.89    2.50
  10  -1  -3   43.70    2.30
  10  -1  -3   48.50    2.20
   9 -10   3   50.19    2.20
   9 -10   3   48.60    2.20
   9 -10   3   47.90    2.60
   9 -10   3   45.80    2.30
   1   9   3   52.59    2.40
 -10   1   3   53.69    3.20
   9 -10  -3    1.20    0.60
   9 -10  -3    0.10    0.70
   9 -10  -3    0.90    0.80
   1   9  -3    1.80    0.60
 -10   1  -3    1.20    0.70
  10  -1   3    1.10    0.50
 -10   2  -3    7.40    1.40
   2   8  -3    6.90    1.10
   8 -10  -3    6.60    1.00
 -10   2  -3    7.00    1.70
   8 -10  -3    5.80    1.00
   8 -10  -3    6.20    1.20
   8 -10  -3    9.30    1.60
  10  -2   3    6.60    1.20
  10  -2   3    5.30    0.90
   7 -10  -3    4.70    0.90
   3   7  -3    9.50    1.30
 -10   3  -3    7.90    1.70
   7 -10  -3    6.70    1.20
   7 -10  -3    4.70    1.20
 -10   3  -3    8.10    1.90
   7 -10  -3    9.30    1.70
  10  -3   3    9.50    1.40
  10  -3   3    5.90    1.00
   6 -10  -3   62.19    3.80
   4   6  -3   68.59    3.10
   6 -10  -3   61.99    2.90
   6 -10  -3   66.09    3.30
 -10   4  -3   63.19    3.60
   4   6  -3   65.19    3.10
   6 -10  -3   65.79    3.20
   6 -10  -3   58.99    3.20
  10  -4   3   64.09    3.10
  10  -4   3   63.89    2.90
   5 -10  -3   19.60    2.10
 -10   5  -3   17.70    2.10
   5 -10  -3   15.00    2.40
   5 -10  -3   17.20    2.10
   5 -10  -3   16.80    2.00
   5 -10  -3   15.50    1.70
   5   5  -3   17.30    1.70
   5   5  -3   17.50    1.70
  -5  -5   3   15.90    2.70
  10  -5   3   17.60    1.70
  10  -5   3   17.70    1.40
  10  -5   3   19.10    1.60
   4 -10  -3    3.20    0.90
   6   4  -3    4.80    1.00
   4 -10  -3    2.60    1.00
   4 -10  -3    2.50    1.20
   4 -10  -3    2.90    1.00
   4 -10  -3    6.70    1.30
 -10   6  -3    4.70    1.20
   6   4  -3    5.50    1.00
  -6  -4   3    3.10    1.20
  10  -6   3    4.70    1.00
  10  -6   3    3.00    0.80
  10  -6   3    6.00    1.00
  10  -6   3    5.50    0.90
   3 -10  -3   31.20    2.80
   3 -10  -3   31.10    2.30
   3 -10  -3   29.40    1.90
   7   3  -3   32.80    2.10
   3 -10  -3   35.10    2.20
   7   3  -3   26.10    1.90
   3 -10  -3   28.90    2.80
 -10   7  -3   29.90    2.20
  10  -7   3   33.10    1.90
  10  -7   3   27.60    1.90
  10  -7   3   30.90    1.80
  10  -7   3   30.30    2.00
  -7  -3   3   26.80    3.30
   2 -10  -3   34.10    2.20
   8   2  -3   30.50    1.80
   8   2  -3   32.00    2.00
   2 -10  -3   32.30    2.60
   2 -10  -3   27.30    2.60
   2 -10  -3   29.50    1.80
  10  -8   3   31.40    1.90
  10  -8   3   31.70    1.70
  10  -8   3   28.50    1.90
  -8  -2   3   29.60    3.30
  10  -8   3   32.30    1.80
   1 -10  -3   19.80    1.90
   9   1  -3   20.40    1.40
   1 -10  -3   20.50    1.50
   1 -10  -3   16.40    1.20
   9   1  -3   15.50    1.80
   1 -10  -3   22.00    1.90
  10  -9   3   18.90    1.40
  10  -9   3   19.20    1.20
  -9  -1   3   18.40    2.30
  -9  -1   3   14.20    2.70
   4   7  -3    6.10    0.90
   7 -11  -3    5.80    1.10
   7 -11  -3    5.90    0.90
   7 -11  -3    3.70    1.20
 -11   4  -3    6.90    1.20
  11  -4   3    6.00    0.90
   5   6  -3   44.00    2.10
   6 -11  -3   40.70    2.50
   6 -11  -3   43.40    2.00
 -11   5  -3   42.70    2.40
   6 -11  -3   43.40    2.20
   6 -11  -3   42.60    2.20
  11  -5   3   41.50    2.10
 -11   6  -3   50.39    2.70
   5 -11  -3   51.09    2.40
   5 -11  -3   51.79    2.30
   6   5  -3   52.29    2.30
   5 -11  -3   49.70    2.50
   5 -11  -3   51.49    3.00
  11  -6   3   53.19    2.40
  -6  -5   3   51.49    4.20
   4 -11  -3    7.20    1.40
   4 -11  -3    8.10    1.10
   4 -11  -3   11.30    1.30
   7   4  -3    9.70    1.00
   4 -11  -3   12.90    1.50
  -7  -4   3    7.50    1.60
  11  -7   3    8.90    1.10
   0   0  -4    0.40    0.60
   0   0  -4    0.20    0.60
   0   0  -4    2.70    0.50
   0   0   4    0.80    0.70
   0   1  -4  417.26   13.70
   1  -1  -4  378.26   13.00
   0   1  -4  401.56   12.80
  -1   0  -4  368.76   13.80
   1  -1  -4  383.96   12.40
  -1   0  -4  378.56   12.90
   1  -1  -4  415.46   14.10
   1   0   4  398.86   14.90
  -1   1   4  390.86   14.30
   0  -1   4  357.26   12.80
   0  -1   4  372.96   14.30
   0  -1  -4  454.35   16.00
   1   0  -4  501.55   15.90
  -1   1  -4  481.85   15.80
  -1   1  -4  489.75   16.60
   1   0  -4  464.45   16.00
   1   0  -4  497.05   16.90
  -1   1  -4  508.25   15.30
   0  -1  -4  518.85   17.10
   0   1   4  531.05   18.20
   1  -1   4  488.65   17.90
  -1   0   4  492.35   16.90
   0   1   4  468.55   14.40
  -1  -1  -4 2269.67   69.39
  -1   2  -4 2244.48   69.39
   2  -1  -4 2433.16   70.79
  -1   2  -4 2360.36   69.29
   2  -1  -4 2403.16   69.49
  -1  -1  -4 2401.56   70.79
   2  -1  -4 2271.37   69.29
   1  -2   4 2328.17   71.79
  -2   1   4 2223.08   69.69
   1   1   4 2346.27   71.99
   1  -2   4 2302.47   69.09
  -2  -1  -4 4199.48  119.79
   3  -2  -4 4156.48  118.19
   3  -2  -4 3876.91  117.29
  -2  -1  -4 3731.33  121.09
  -1   3  -4 3950.10  118.09
  -3   2   4 3980.00  117.99
   1  -3   4 3935.21  117.49
  -3   2   4 3895.21  119.09
   2   1   4 3903.11  120.59
   1  -3   4 4183.08  120.99
   0   2  -4  791.32   26.00
   2  -2  -4  798.02   25.70
  -2   0  -4  828.82   27.20
   2  -2  -4  854.91   27.00
   2  -2  -4  842.12   25.70
  -2   0  -4  792.02   25.50
   0   2  -4  840.82   26.20
   2   0   4  779.92   28.00
   0  -2   4  829.22   27.70
  -2   2   4  841.32   27.30
   0  -2   4  796.92   25.80
   1  -2  -4  142.19    6.70
  -2   1  -4  132.89    6.50
   1  -2  -4  138.19    5.30
   1   1  -4  147.69    6.20
  -2   1  -4  149.79    5.20
   1   1  -4  147.29    6.70
   1  -2  -4  135.39    6.00
  -1   2   4  146.19    7.50
   2  -1   4  159.18    7.90
  -1  -1   4  133.69    5.90
  -1  -1   4  141.39    6.50
   0  -2  -4  169.68    7.20
  -2   2  -4  182.08    7.40
   2   0  -4  202.68    7.70
  -2   2  -4  172.58    6.80
   0  -2  -4  186.28    8.10
   0   2   4  175.68    6.00
   2  -2   4  176.98    7.00
  -2   0   4  185.08    8.10
  -2   0   4  172.48    6.90
  -2   0   4  166.48    7.00
   0   2   4  173.28    9.00
   2  -2   4  191.08    9.20
   3  -1  -4 1113.59   34.80
  -2   3  -4 1093.19   33.60
  -1  -2  -4 1073.29   34.40
  -1  -2  -4 1121.49   35.70
  -2   3  -4 1122.69   34.50
   1   2   4 1133.89   37.40
   2  -3   4 1093.59   37.30
   2  -3   4 1026.60   33.40
  -3   1   4 1047.10   33.90
  -3   1   4 1124.99   35.90
  -2  -2  -4  648.54   23.10
  -2  -2  -4  594.94   21.20
   4  -2  -4  647.54   22.00
  -2   4  -4  653.23   22.00
   2   2   4  623.24   24.20
  -4   2   4  632.64   22.90
   2  -4   4  601.44   20.50
   2  -4   4  654.83   24.70
  -4   2   4  604.64   20.40
  -3  -2  -4   83.59    5.20
   5  -3  -4   83.99    5.80
  -2   5  -4   86.49    5.90
  -3  -2  -4  101.69    7.00
   2  -5   4   81.39    7.30
  -5   3   4   91.59    6.50
   3   2   4  100.19    7.50
   2  -5   4   84.29    5.20
  -3  -1  -4  178.28    9.40
  -3  -1  -4  171.48    7.50
   4  -3  -4  176.88    8.20
  -1   4  -4  174.88    8.40
  -4   3   4  174.98    8.80
   3   1   4  183.08    9.90
   1  -4   4  164.98    7.50
   1  -4   4  157.18    9.60
   3  -3  -4  543.25   18.20
   3  -3  -4  560.74   18.80
  -3   0  -4  534.35   18.10
   0   3  -4  592.84   19.50
  -3   0  -4  577.74   20.60
   3  -3  -4  545.55   19.90
   3   0   4  529.05   20.70
   0  -3   4  548.05   18.70
   0  -3   4  529.35   20.60
  -3   1  -4  177.28    7.40
   2  -3  -4  180.28    8.00
   2  -3  -4  179.88    9.00
   2  -3  -4  166.98    7.20
   1   2  -4  178.78    7.80
  -3   1  -4  163.88    8.20
   3  -1   4  187.38    9.40
  -1  -2   4  179.88    7.60
  -1  -2   4  183.68    7.80
  -1  -2   4  166.28    8.10
   2   1  -4  203.98    8.50
   1  -3  -4  204.48    8.70
  -3   2  -4  196.08    7.60
   1  -3  -4  189.18    9.80
  -3   2  -4  186.38    8.40
   1  -3  -4  202.08    8.20
  -2  -1   4  201.88    8.90
   3  -2   4  213.78   10.20
  -1   3   4  195.58    7.40
  -2  -1   4  186.48    7.70
  -2  -1   4  184.88    8.00
  -3   3  -4  357.46   12.80
   0  -3  -4  370.26   13.30
   3   0  -4  325.57   13.30
   0  -3  -4  376.06   13.90
  -3   3  -4  333.37   12.60
  -3   0   4  347.47   12.70
   3  -3   4  376.66   15.90
  -3   0   4  338.47   14.10
  -3   4  -4  718.93   24.50
  -1  -3  -4  729.43   24.50
  -1  -3  -4  732.63   25.50
   4  -1  -4  692.73   24.80
  -4   1   4  697.03   23.50
  -4   1   4  737.03   26.10
   3  -4   4  724.53   27.80
   1   3   4  752.42   27.90
   5  -2  -4   93.59    6.10
  -2  -3  -4   87.89    5.50
  -2  -3  -4   86.49    6.40
  -3   5  -4   86.19    5.80
   3  -5   4   83.99    7.40
   2   3   4   84.29    7.20
  -5   2   4   84.09    6.50
  -3  -3  -4   47.50    4.30
  -3   6  -4   53.39    5.00
  -3  -3  -4   54.19    5.50
   6  -3  -4   53.89    5.00
   3  -6   4   57.39    6.80
   3   3   4   47.60    5.80
  -6   3   4   47.00    5.20
  -4  -3  -4  918.61   30.00
  -4  -3  -4  947.11   28.10
   7  -4  -4  959.60   28.60
  -3   7  -4  853.61   28.20
  -4  -3  -4  951.20   32.30
   7  -4  -4  913.91   29.80
   7  -4  -4  926.21   28.30
   7  -4  -4  933.71   28.40
   7  -4  -4  964.90   29.20
   3  -7   4  911.71   29.60
   4   3   4  934.01   28.40
   3  -7   4  904.81   28.20
   3  -7   4  903.51   27.90
   3  -7   4  942.51   28.70
   3  -7   4  897.41   30.00
  -2   6  -4  450.45   18.80
  -4  -2  -4  463.45   20.30
  -4  -2  -4  431.56   17.10
   6  -4  -4  454.45   18.60
  -6   4   4  466.35   19.60
   2  -6   4  458.25   22.00
  -1   5  -4   38.20    3.90
  -4  -1  -4   20.20    2.40
  -4  -1  -4   24.00    3.50
   5  -4  -4   22.80    3.00
   1  -5   4   22.10    2.70
   1  -5   4   24.00    4.10
   0   4  -4  118.79    6.80
   4  -4  -4  114.69    6.40
  -4   0  -4  108.69    7.40
  -4   4   4  114.19    6.70
   4   0   4  116.99    7.70
   0  -4   4  112.69    7.80
   0  -4   4  119.09    6.30
   3  -4  -4 1120.29   38.30
  -4   1  -4 1131.69   37.70
   1   3  -4 1183.48   36.90
   3  -4  -4 1087.99   35.20
  -1  -3   4 1135.69   36.00
  -1  -3   4 1047.20   37.10
   4  -1   4 1144.89   38.30
   2   2  -4  250.27   11.00
   2  -4  -4  265.67   10.80
   2  -4  -4  271.37   13.10
  -4   2  -4  257.57   11.50
   2  -4  -4  271.97   10.50
  -2  -2   4  260.17   10.60
  -2   4   4  257.67   10.30
  -2  -2   4  270.37   11.40
   4  -2   4  269.97   12.70
   1  -4  -4  577.34   20.20
  -4   3  -4  573.94   19.60
   1  -4  -4  562.04   19.90
   3   1  -4  587.04   20.70
   1  -4  -4  592.04   23.30
   4  -3   4  576.64   22.80
  -3  -1   4  553.44   21.20
  -1   4   4  562.54   19.20
  -3  -1   4  571.34   19.80
   0  -4  -4  530.85   18.80
   0  -4  -4  447.96   21.00
   4   0  -4  522.75   19.30
  -4   4  -4  513.65   18.50
   0  -4  -4  480.75   18.70
  -4   0   4  508.45   17.90
   4  -4   4  544.55   22.10
  -4   0   4  533.75   20.50
   5  -1  -4  722.53   26.30
  -4   5  -4  734.63   25.90
  -1  -4  -4  753.42   25.90
  -5   1   4  741.53   28.00
   4  -5   4  758.72   29.90
   1   4   4  692.43   29.20
  -4   6  -4  285.77   13.70
   6  -2  -4  299.67   14.10
  -2  -4  -4  316.07   13.70
  -6   2   4  288.37   15.10
   4  -6   4  332.47   17.60
   7  -3  -4  215.98    7.60
   7  -3  -4  216.28    8.40
  -3  -4  -4  211.08   11.00
   7  -3  -4  210.08    7.80
   7  -3  -4  205.68    7.70
  -3  -4  -4  210.98    7.40
  -3  -4  -4  219.78    8.70
  -3  -4  -4  210.58    7.70
  -3  -4  -4  206.18   10.50
   7  -3  -4  210.88    9.20
   4  -7   4  207.38    8.80
   4  -7   4  204.98    7.40
   4  -7   4  209.78    7.30
   4  -7   4  209.28    7.80
   4  -7   4  213.18    9.00
   4  -7   4  211.18    7.50
   8  -4  -4   39.60    2.70
  -4  -4  -4   36.60    4.30
   8  -4  -4   36.30    2.40
   8  -4  -4   39.40    4.20
  -4  -4  -4   37.00    4.30
  -4   8  -4   35.00    2.50
   8  -4  -4   41.70    3.40
   8  -4  -4   33.80    2.40
  -4  -4  -4   39.90    2.40
   4  -8   4   35.60    2.20
   4  -8   4   32.70    3.20
   4   4   4   34.40    2.60
   4  -8   4   31.50    2.40
   4  -8   4   33.50    3.10
   4  -8   4   35.30    2.30
   4  -8   4   32.60    2.60
   9  -5  -4   91.29    4.20
   9  -5  -4   92.69    4.40
   9  -5  -4   97.89    5.10
  -5  -4  -4   91.39    6.60
  -4   9  -4   88.99    4.00
   9  -5  -4   92.09    4.10
   4  -9   4   91.09    5.10
   5   4   4   89.79    3.90
   5   4   4   96.29    3.90
   4  -9   4   88.69    4.30
   4  -9   4   86.39    4.00
   5   4   4   97.69    4.30
   4  -9   4   86.79    3.70
   4  -9   4   91.49    5.30
   8  -5  -4   68.29    4.30
  -3   8  -4   64.69    3.40
   8  -5  -4   71.89    3.60
   8  -5  -4   68.19    3.40
   8  -5  -4   65.19    3.60
  -5  -3  -4   63.79    5.60
  -5  -3  -4   64.39    4.30
   3  -8   4   63.79    3.60
   3  -8   4   61.89    3.30
   5   3   4   63.19    3.20
   3  -8   4   64.49    4.40
   3  -8   4   66.39    4.20
   5   3   4   67.39    3.50
  -5  -2  -4  892.41   31.40
   7  -5  -4  881.91   28.30
   7  -5  -4  937.31   27.70
   7  -5  -4  926.81   27.80
  -2   7  -4  884.41   27.60
  -5  -2  -4  879.01   29.50
   7  -5  -4  929.41   27.90
   5   2   4  881.11   27.40
   2  -7   4  865.41   29.40
   2  -7   4  922.71   27.60
   2  -7   4  912.81   28.00
   5   2   4  900.31   27.80
   2  -7   4  890.11   28.80
  -5  -1  -4  129.49    6.60
   6  -5  -4  134.09    5.20
   6  -5  -4  127.49    5.30
  -1   6  -4  126.39    8.50
   6  -5  -4  135.69    5.20
  -5  -1  -4  151.68    7.40
   6  -5  -4  120.09    8.10
  -5  -1  -4  132.49    9.70
   5   1   4  129.19    5.30
   1  -6   4  127.19   10.30
   5   1   4  129.39    5.00
   1  -6   4  132.09    5.40
   1  -6   4  134.79    7.70
   1  -6   4  136.39    6.20
   0   5  -4  527.65   20.80
  -5   0  -4  475.15   21.70
   0  -5   4  534.65   23.00
   0  -5   4  571.44   20.20
   4  -5  -4  304.87   14.70
  -5   1  -4  270.07   13.80
   1   4  -4  289.47   13.10
  -4   5   4  293.27   12.70
  -1  -4   4  307.87   12.60
   3  -5  -4  335.47   12.70
   3  -5  -4  320.77   15.90
   2   3  -4  322.77   13.90
  -5   2  -4  326.97   14.50
   5  -2   4  319.47   15.10
  -3   5   4  328.37   13.20
  -2  -3   4  320.27   13.20
   2  -5  -4   78.69    5.10
   2  -5  -4   88.39    7.50
  -5   3  -4   72.59    5.50
   3   2  -4   78.39    5.70
  -3  -2   4   74.59    5.70
  -3  -2   4   88.19    5.40
  -2   5   4   81.19    5.10
   5  -3   4   77.99    6.60
   1  -5  -4  221.78   10.20
   1  -5  -4  208.18   12.80
  -5   4  -4  210.08    9.90
   4   1  -4  218.88   10.80
   5  -4   4  201.68   12.10
  -4  -1   4  222.18   11.50
  -4  -1   4  222.98    9.70
   0  -5  -4   22.90    3.10
  -5   5  -4   20.10    2.90
   5   0  -4   24.10    3.40
   5  -5   4   19.50    3.90
  -5   0   4   23.40    3.70
  -5   0   4   21.10    2.60
  -1  -5  -4  156.78    5.70
  -1  -5  -4  176.28    7.20
   6  -1  -4  150.48    6.10
   6  -1  -4  146.99    7.20
  -5   6  -4  152.18    9.10
  -1  -5  -4  161.98    6.10
  -1  -5  -4  170.08    9.20
   6  -1  -4  155.18    8.60
   6  -1  -4  154.48    6.40
  -1  -5  -4  158.08    6.90
   6  -1  -4  162.98    6.00
   6  -1  -4  160.38    9.60
   6  -1  -4  148.99    6.00
   5  -6   4  156.18    7.00
   5  -6   4  170.88   12.10
   5  -6   4  150.68    5.60
  -6   1   4  156.98   10.60
   1   5   4  147.09   11.40
   5  -6   4  164.18    6.10
   7  -2  -4  192.48    9.70
  -2  -5  -4  190.58    9.90
   7  -2  -4  197.08    8.80
   7  -2  -4  196.08    7.40
  -2  -5  -4  192.28    7.00
  -2  -5  -4  187.68    7.20
  -2  -5  -4  196.88    8.20
   7  -2  -4  196.08    7.20
  -2  -5  -4  221.28    8.20
  -2  -5  -4  205.18   11.00
   7  -2  -4  195.18    7.20
   7  -2  -4  183.78    7.70
   5  -7   4  196.48    8.40
   5  -7   4  192.38    7.30
   5  -7   4  200.88    7.30
   5  -7   4  190.08    6.90
   5  -7   4  192.28    7.00
   5  -7   4  192.58    7.00
   5  -7   4  190.98    8.30
   8  -3  -4  171.28    6.50
   8  -3  -4  172.38    6.70
   8  -3  -4  171.88    8.10
  -3  -5  -4  162.48    6.20
  -3  -5  -4  162.08    9.80
   8  -3  -4  172.28    7.30
   8  -3  -4  173.98    6.50
  -3  -5  -4  162.98    9.20
   5  -8   4  165.58    6.20
   5  -8   4  178.48    7.90
   5  -8   4  159.58    6.30
   5  -8   4  168.08    6.70
   5  -8   4  161.38    7.60
   5  -8   4  168.78    6.30
   9  -4  -4   12.40    1.70
   9  -4  -4   10.30    2.40
  -5   9  -4   12.40    1.70
   9  -4  -4   10.20    1.70
  -4  -5  -4   10.50    1.40
   9  -4  -4   13.60    1.70
   9  -4  -4   18.70    2.80
  -4  -5  -4    9.50    2.90
   5  -9   4   14.70    1.60
   5  -9   4   10.90    2.00
   4   5   4   12.40    1.60
   5  -9   4   11.20    1.50
   5  -9   4   11.90    1.50
   4   5   4   16.00    2.10
   5  -9   4    8.60    1.50
   5  -9   4   13.10    2.40
  -5  10  -4  172.48    6.30
  10  -5  -4  179.18    6.60
  10  -5  -4  183.58    6.40
  -5  -5  -4  175.18    8.70
  10  -5  -4  176.28    6.40
  10  -5  -4  182.58    7.10
   5 -10   4  179.88    6.10
   5 -10   4  182.28    7.50
   5   5   4  166.68    6.20
   5 -10   4  183.98    7.50
   5 -10   4  176.18    6.30
   5   5   4  184.38    6.50
  -6  -5  -4   42.40    3.20
  11  -6  -4   45.60    2.20
  11  -6  -4   47.90    2.40
  -5  11  -4   47.20    2.30
   5 -11   4   48.50    3.20
   6   5   4   49.40    2.20
  -4  10  -4  227.48    7.70
  10  -6  -4  210.08    7.30
  -6  -4  -4  207.38    9.80
  10  -6  -4  216.38    7.60
  10  -6  -4  219.08    7.50
  10  -6  -4  218.48    8.00
   6   4   4  222.98    7.50
   4 -10   4  213.08    8.30
   4 -10   4  198.58    7.20
   4 -10   4  211.48    8.60
   9  -6  -4    0.40    1.00
  -6  -3  -4    0.50    1.00
  -6  -3  -4    1.20    0.80
   9  -6  -4    1.20    0.90
   9  -6  -4    1.50    1.00
   6   3   4    3.00    0.90
   3  -9   4    0.00    0.90
   3  -9   4    2.50    1.10
   6   3   4    1.50    0.90
   3  -9   4    1.50    1.00
   6   3   4    2.40    1.00
  -6  -2  -4  181.28    8.30
   8  -6  -4  183.08    6.70
   8  -6  -4  179.68    6.90
  -6  -2  -4  167.78    9.50
   8  -6  -4  178.48    6.80
   8  -6  -4  170.38    7.30
   6   2   4  170.48    6.50
   2  -8   4  176.48    6.60
   2  -8   4  173.38    8.10
   6   2   4  179.28    6.80
   2  -8   4  170.28    7.60
   6   2   4  177.68    6.40
   7  -6  -4  137.49    5.40
   7  -6  -4  137.49    5.70
   7  -6  -4  133.69    5.50
   7  -6  -4  139.39    5.50
  -6  -1  -4  136.19    7.00
   1  -7   4  134.89    5.50
   6   1   4  131.79    5.20
   6   1   4  129.69    5.30
   6   1   4  138.49    5.60
   1  -7   4  143.49    6.70
   1  -7   4  140.49    8.40
   0   6  -4  423.56   13.90
   6  -6  -4  415.46   13.50
   6  -6  -4  404.56   13.70
  -6   0  -4  405.26   14.30
   6  -6  -4  407.16   13.50
  -6   0  -4  413.76   15.50
   6  -6  -4  421.16   13.60
  -6   0  -4  454.85   16.30
   0  -6   4  420.46   14.90
   0  -6   4  415.16   13.60
   0  -6   4  437.06   17.50
   6   0   4  408.46   13.30
   6   0   4  406.56   13.70
  -6   1  -4  138.19    6.20
  -6   1  -4  155.58    6.90
  -6   1  -4  131.29    9.60
   1   5  -4  145.19    9.00
   1   5  -4  144.39    5.80
  -5   6   4  147.39    8.90
  -1  -5   4  160.58    8.70
   6  -1   4  144.99    5.40
   6  -1   4  141.29    5.60
   4  -6  -4  284.77   15.80
   2   4  -4  295.47   13.60
  -6   2  -4  244.88   13.70
  -2  -4   4  307.07   13.10
  -6   3  -4  535.15   22.70
   3   3  -4  571.34   22.80
   3  -6  -4  597.54   26.20
   3  -6  -4  639.74   23.00
  -3  -3   4  592.64   21.90
   2  -6  -4  227.98   10.70
   2  -6  -4  218.58   14.20
   4   2  -4  228.08   11.70
  -4  -2   4  211.08   11.80
  -4  -2   4  220.48   10.50
   1  -6  -4  125.49   10.70
   1  -6  -4  135.69    6.40
   5   1  -4  133.39    5.20
   1  -6  -4  127.29    6.10
   1  -6  -4  129.19    5.20
   1  -6  -4  133.99    5.00
   5   1  -4  147.29    7.80
   1  -6  -4  147.49    8.30
   5   1  -4  131.39    5.30
   5   1  -4  126.49    8.50
  -5  -1   4  123.99    7.20
  -5  -1   4  142.59    9.70
   6  -5   4  128.69    4.90
   6  -5   4  132.99    5.30
   6  -5   4  111.29    5.10
   6  -5   4  138.99    6.20
   0  -6  -4   42.20    2.30
   6   0  -4   38.90    2.30
   0  -6  -4   39.90    2.50
   6   0  -4   44.60    2.80
   6   0  -4   33.40    3.30
   0  -6  -4   36.70    4.30
   6   0  -4   36.20    2.50
   0  -6  -4   41.00    3.10
   0  -6  -4   39.10    2.50
   6   0  -4   40.70    2.40
   6   0  -4   43.00    4.30
   6  -6   4   37.50    2.50
   6  -6   4   38.30    2.20
   6  -6   4   38.10    2.20
   6  -6   4   40.50    3.20
   6  -6   4   41.80    2.50
   6  -6   4   39.60    2.40
   7  -1  -4   42.80    3.10
   7  -1  -4   33.70    3.60
   7  -1  -4   41.00    2.50
  -1  -6  -4   44.70    3.40
  -1  -6  -4   38.90    2.70
   7  -1  -4   40.70    2.60
  -1  -6  -4   39.70    2.30
   7  -1  -4   38.40    2.60
  -1  -6  -4   41.60    4.80
   6  -7   4   38.90    2.50
   6  -7   4   40.10    3.30
   6  -7   4   37.60    2.30
   6  -7   4   44.90    2.50
   6  -7   4   39.60    2.70
   6  -7   4   38.30    2.60
  -2  -6  -4    0.90    1.50
  -2  -6  -4    0.50    0.80
   8  -2  -4    1.20    0.70
   8  -2  -4    0.40    0.90
   8  -2  -4    0.20    1.10
  -2  -6  -4   -0.50    0.90
   8  -2  -4   -1.40    1.00
   8  -2  -4    0.50    0.90
  -2  -6  -4   -0.20    0.80
   6  -8   4    0.80    0.70
   6  -8   4    0.40    0.80
   6  -8   4    3.30    0.90
   6  -8   4   -0.70    0.80
   6  -8   4    0.50    1.00
   6  -8   4    0.60    1.00
  -3  -6  -4    6.50    1.20
   9  -3  -4   12.50    2.40
   9  -3  -4    9.40    1.70
  -3  -6  -4    9.30    2.60
   9  -3  -4   12.20    1.70
  -6   9  -4   11.10    1.70
   9  -3  -4   11.30    1.40
   6  -9   4    8.70    1.60
   3   6   4   13.10    2.10
   6  -9   4   11.60    1.50
   6  -9   4   11.30    1.40
   6  -9   4    8.90    1.80
   6  -9   4   12.80    1.60
   6  -9   4   11.20    2.40
  -6  10  -4    2.70    0.90
  -4  -6  -4    0.50    0.80
  10  -4  -4    1.10    1.10
  10  -4  -4    1.10    0.90
  10  -4  -4    2.70    1.00
  10  -4  -4    2.30    0.80
   4   6   4    3.00    0.90
   4   6   4    3.10    0.90
 -10   4   4    0.90    1.00
   6 -10   4    0.30    0.80
   6 -10   4    2.10    1.20
   6 -10   4    1.30    0.80
   6 -10   4    2.40    1.10
   6 -10   4    3.20    0.80
  -6  11  -4   63.39    2.80
  11  -5  -4   60.99    2.60
  11  -5  -4   74.29    3.40
   5   6   4   63.39    2.60
   6 -11   4   60.09    3.10
  10  -7  -4   69.59    3.00
  -7  -3  -4   60.29    4.70
  -3  10  -4   69.69    3.20
  10  -7  -4   68.99    3.20
  10  -7  -4   62.39    3.10
   7   3   4   66.99    3.10
   3 -10   4   66.39    3.90
   3 -10   4   65.69    3.50
   9  -7  -4  128.39    5.00
   9  -7  -4  131.49    5.30
   9  -7  -4  125.69    5.10
  -2   9  -4  125.79    5.30
  -7  -2  -4  126.29    7.50
  -7  -2  -4  126.09    6.20
   2  -9   4  122.89    4.90
   2  -9   4  119.79    6.20
   2  -9   4  128.09    5.60
   7   2   4  117.29    4.80
   7   2   4  131.09    5.20
   8  -7  -4  103.59    4.50
   8  -7  -4  106.79    4.80
   8  -7  -4  106.79    4.60
   8  -7  -4  102.99    4.50
  -7  -1  -4  106.09    6.00
  -1   8  -4  105.09    4.80
  -7  -1  -4  115.59    6.60
   1  -8   4  106.69    4.50
   7   1   4  101.89    4.20
   1  -8   4  105.19    5.80
   7   1   4  106.99    4.70
   7   1   4   99.09    4.30
   7  -7  -4  276.17    9.60
   0   7  -4  263.77    9.80
   7  -7  -4  275.57    9.80
  -7   0  -4  270.37   11.50
  -7   0  -4  319.07   12.20
   7  -7  -4  279.87    9.70
  -7   0  -4  270.47   10.20
   7  -7  -4  276.07    9.60
   0  -7   4  280.97   10.90
   0  -7   4  274.87   13.30
   7   0   4  273.57    9.80
   7   0   4  276.77    9.30
   0  -7   4  280.37    9.60
   7   0   4  263.07    9.40
  -7   1  -4   44.70    3.80
   1   6  -4   50.99    3.10
   6  -7  -4   48.90    2.50
   6  -7  -4   48.40    2.70
   6  -7  -4   50.39    2.90
   6  -7  -4   46.80    2.80
  -7   1  -4   49.30    3.50
   6  -7  -4   49.90    2.80
   7  -1   4   46.80    2.60
   7  -1   4   47.50    2.80
   7  -1   4   47.40    2.60
  -1  -6   4   47.30    4.90
   5  -7  -4  175.58    6.50
   5  -7  -4  175.88    6.60
  -7   2  -4  175.78    7.40
   5  -7  -4  168.18    6.60
   5  -7  -4  177.08    6.40
   2   5  -4  176.98    6.90
   5  -7  -4  167.18    7.50
  -7   2  -4  192.38    8.10
  -2  -5   4  190.08   10.20
   7  -2   4  169.38    6.60
   7  -2   4  180.48    6.40
   4  -7  -4  530.85   17.80
   4  -7  -4  523.85   16.20
   3   4  -4  522.35   16.80
  -7   3  -4  516.25   17.80
  -7   3  -4  502.45   17.30
   4  -7  -4  502.85   17.80
   4  -7  -4  515.35   16.50
   4  -7  -4  514.25   16.40
  -3  -4   4  542.65   20.70
   7  -3   4  521.75   16.20
   7  -3   4  514.95   16.50
  -3  -4   4  490.15   19.40
  -7   4  -4  451.35   15.80
   3  -7  -4  474.15   14.90
   4   3  -4  456.15   15.30
   3  -7  -4  465.65   15.00
   3  -7  -4  472.15   16.70
   3  -7  -4  473.85   15.10
   3  -7  -4  470.15   16.50
  -4  -3   4  488.55   19.10
   7  -4   4  474.15   14.90
   7  -4   4  456.95   15.10
   7  -4   4  478.25   15.00
  -4  -3   4  459.15   18.50
   2  -7  -4   55.29    2.80
   2  -7  -4   54.49    4.00
   2  -7  -4   48.80    2.90
  -7   5  -4   51.89    3.50
   2  -7  -4   56.69    3.90
   2  -7  -4   53.09    3.00
   2  -7  -4   59.19    5.20
   5   2  -4   53.69    2.90
   5   2  -4   66.49    3.70
   5   2  -4   52.49    3.10
  -5  -2   4   62.19    5.20
   7  -5   4   53.29    2.80
   7  -5   4   52.19    3.00
   7  -5   4   51.89    3.50
   7  -5   4   53.99    2.90
   7  -5   4   53.79    2.70
   6   1  -4  104.59    4.80
   1  -7  -4  108.09    4.60
   1  -7  -4  103.29    5.60
   6   1  -4  106.29    4.60
   1  -7  -4  109.79    7.60
   1  -7  -4  115.69    4.80
   6   1  -4  112.29    5.80
   1  -7  -4  100.89    5.80
   1  -7  -4  110.99    4.50
   7  -6   4  108.59    4.50
  -6  -1   4  101.39    7.40
   7  -6   4  105.99    4.70
   7  -6   4  103.89    5.40
   7  -6   4  100.99    4.50
   7  -6   4  105.29    4.40
   7  -6   4  109.89    4.60
   0  -7  -4  165.18    6.30
   0  -7  -4  156.48    6.40
   7   0  -4  170.78    6.40
   7   0  -4  157.18    6.10
   0  -7  -4  175.38   10.10
   0  -7  -4  159.48    7.40
   7   0  -4  165.88    6.60
   0  -7  -4  174.38    6.20
   0  -7  -4  162.48    7.80
   7   0  -4  168.18    7.90
   7   0  -4  151.28    6.70
   7  -7   4  168.88    6.30
   7  -7   4  158.38    6.40
   7  -7   4  165.88    6.20
   7  -7   4  170.28    7.50
  -7   0   4  159.38    9.40
   7  -7   4  168.08    6.50
   7  -7   4  165.38    6.20
   8  -1  -4  140.59    5.60
   8  -1  -4  139.39    6.40
  -1  -7  -4  157.48    7.00
   8  -1  -4  151.78    6.20
  -1  -7  -4  143.49    5.60
   8  -1  -4  154.48    6.00
  -1  -7  -4  152.08    6.90
   8  -1  -4  144.99    7.30
  -1  -7  -4  151.98    6.10
   7  -8   4  154.08    5.70
   7  -8   4  150.18    6.00
   7  -8   4  151.48    6.10
   7  -8   4  144.69    5.80
   7  -8   4  156.68    5.80
   7  -8   4  156.38    7.10
   9  -2  -4   20.60    2.50
   9  -2  -4   26.90    1.90
   9  -2  -4   24.50    2.10
  -2  -7  -4   22.50    2.00
   9  -2  -4   26.00    2.10
   7  -9   4   27.60    2.00
   7  -9   4   26.60    2.10
   7  -9   4   26.80    1.90
   7  -9   4   26.90    2.80
   7  -9   4   25.40    2.30
  10  -3  -4   61.69    3.00
  10  -3  -4   59.79    2.70
  10  -3  -4   59.69    2.90
  -7  10  -4   66.59    3.10
  10  -3  -4   65.39    3.50
   3   7   4   66.19    3.10
   7 -10   4   57.69    2.80
 -10   3   4   62.49    4.10
   3   7   4   62.39    2.80
   7 -10   4   60.59    3.00
   7 -10   4   64.69    2.80
   7 -10   4   60.49    3.70
   7 -10   4   62.49    2.70
  -2  10  -4   36.00    2.10
  -8  -2  -4   33.20    3.20
  10  -8  -4   32.70    1.90
  -8  -2  -4   31.50    2.40
  10  -8  -4   36.40    2.20
  10  -8  -4   32.30    2.00
   8   2   4   35.30    2.00
   2 -10   4   33.80    2.60
   9  -8  -4   83.89    3.80
  -8  -1  -4   77.19    5.40
   9  -8  -4   82.79    3.80
   9  -8  -4   83.49    3.70
  -8  -1  -4   84.59    4.70
   9  -8  -4   80.19    3.40
  -1   9  -4   80.29    3.80
   8   1   4   89.49    3.80
   1  -9   4   79.89    4.50
  -8   0  -4   93.69    5.40
   8  -8  -4   91.69    4.30
   0   8  -4   97.69    4.40
   8  -8  -4   87.29    4.00
   8  -8  -4   92.99    4.20
   8  -8  -4   94.79    4.20
   8   0   4   93.19    3.90
   8   0   4   93.79    4.20
   0  -8   4  111.29    5.00
   8   0   4   86.79    3.90
  -8   1  -4   65.19    4.60
   7  -8  -4   67.09    3.30
   7  -8  -4   65.49    3.30
   7  -8  -4   66.99    3.40
   1   7  -4   68.69    3.60
   7  -8  -4   60.79    3.20
  -8   1  -4   65.99    3.90
   7  -8  -4   64.19    3.50
   8  -1   4   61.49    3.10
   8  -1   4   70.69    3.60
   8  -1   4   65.99    3.00
   6  -8  -4   22.40    1.90
   6  -8  -4   21.20    2.00
  -8   2  -4   25.60    2.70
  -8   2  -4   22.20    2.90
   2   6  -4   24.00    2.20
   6  -8  -4   23.50    2.00
   6  -8  -4   23.00    2.10
  -2  -6   4   21.00    3.60
   8  -2   4   25.00    2.20
   8  -2   4   22.40    1.90
   8  -2   4   22.90    1.80
   5  -8  -4   22.70    2.20
   5  -8  -4   24.00    2.70
   3   5  -4   25.50    2.20
  -8   3  -4   24.50    2.60
   5  -8  -4   21.10    2.00
   5  -8  -4   23.20    2.10
   5  -8  -4   23.20    1.90
   8  -3   4   23.70    2.10
  -3  -5   4   23.00    3.70
   8  -3   4   21.40    1.80
   8  -3   4   23.00    1.80
   4  -8  -4  277.97    9.70
   4   4  -4  275.47    9.80
  -8   4  -4  258.97   10.30
   4  -8  -4  288.47    9.40
   4  -8  -4  269.07   11.00
   4  -8  -4  277.17    9.50
   4  -8  -4  282.57   11.00
  -4  -4   4  268.47   12.60
   8  -4   4  277.67    9.60
  -4  -4   4  278.77   13.40
   8  -4   4  279.57    9.30
   8  -4   4  270.07    9.40
   5   3  -4   63.39    3.20
   3  -8  -4   62.09    4.30
   3  -8  -4   66.29    3.40
   5   3  -4   59.79    3.30
   3  -8  -4   61.59    4.40
  -8   5  -4   58.89    3.90
   3  -8  -4   55.69    3.00
   3  -8  -4   61.99    3.30
   8  -5   4   57.39    3.00
   8  -5   4   59.49    2.90
   8  -5   4   53.69    3.00
  -5  -3   4   58.39    5.60
  -5  -3   4   60.89    5.40
   8  -5   4   58.99    3.20
   2  -8  -4   77.09    3.90
   6   2  -4   77.59    3.90
   2  -8  -4   77.19    5.00
  -8   6  -4   75.89    4.30
   6   2  -4   83.39    3.80
   2  -8  -4   78.79    3.70
   2  -8  -4   77.89    4.80
   2  -8  -4   77.19    3.80
   8  -6   4   80.59    3.60
   8  -6   4   79.69    3.80
  -6  -2   4   77.49    6.30
   8  -6   4   85.39    3.70
   8  -6   4   71.29    3.70
   1  -8  -4  254.97    9.00
   1  -8  -4  251.77   10.80
   1  -8  -4  263.07    9.10
   1  -8  -4  280.37    9.40
   7   1  -4  260.17    9.20
   1  -8  -4  265.17   10.60
   7   1  -4  272.07   10.70
   7   1  -4  265.87    9.40
   8  -7   4  248.68    8.90
  -7  -1   4  255.47   12.50
   8  -7   4  254.87    9.10
   8  -7   4  263.77    9.30
   8  -7   4  275.07    9.00
   8  -7   4  263.57   10.20
   8  -7   4  260.57    9.20
   0  -8  -4   86.59    5.10
   0  -8  -4   89.79    3.90
   0  -8  -4   93.79    4.20
   8   0  -4   89.79    4.20
   8   0  -4   85.89    4.00
   0  -8  -4   90.59    5.00
   8  -8   4   92.99    3.90
   8  -8   4   88.89    4.00
   8  -8   4   86.19    4.10
   8  -8   4   82.59    4.70
   8  -8   4   84.49    4.00
   8  -8   4   87.39    3.80
  -8   0   4   84.79    6.40
  -1  -8  -4   45.70    3.10
  -1  -8  -4   40.40    2.60
  -1  -8  -4   39.70    2.30
   9  -1  -4   39.30    2.40
   9  -1  -4   42.20    2.60
   9  -1  -4   36.00    2.60
  -1  -8  -4   46.40    3.10
   8  -9   4   44.70    2.50
   8  -9   4   42.50    2.20
   8  -9   4   38.20    3.00
  -9   1   4   51.99    3.90
  -9   1   4   44.00    3.90
   8  -9   4   40.10    2.30
   8  -9   4   36.70    2.50
  10  -2  -4   84.49    3.40
  10  -2  -4   89.19    3.80
  -8  10  -4   88.39    3.70
  -2  -8  -4   80.69    3.20
  10  -2  -4   88.69    3.60
   8 -10   4   82.99    3.50
   8 -10   4   84.19    3.30
   8 -10   4   90.19    3.40
   2   8   4   92.49    3.60
   8 -10   4   86.89    4.10
 -10   2   4   90.89    4.60
  -1  10  -4   77.99    3.20
  10  -9  -4   82.29    3.40
   9   1   4   81.39    3.10
   9  -9  -4   40.90    2.30
  -9   0  -4   44.50    3.10
   9  -9  -4   40.90    2.40
   9  -9  -4   46.10    2.50
   9  -9  -4   45.00    2.20
   0   9  -4   43.80    2.40
   9   0   4   46.60    2.40
  -9   1  -4    7.70    1.80
   8  -9  -4    7.70    1.30
  -9   1  -4    9.10    1.60
   1   8  -4   10.40    1.60
   8  -9  -4    8.00    1.20
   8  -9  -4    5.80    1.30
   9  -1   4   10.20    1.50
   7  -9  -4    0.50    1.00
  -9   2  -4    2.10    1.00
  -9   2  -4    3.20    1.00
   7  -9  -4    2.70    0.90
   7  -9  -4    2.60    1.10
   2   7  -4    2.50    1.00
   7  -9  -4    1.20    0.90
   9  -2   4    3.70    0.80
   9  -2   4    2.80    0.90
   6  -9  -4   23.20    2.30
  -9   3  -4   24.60    2.60
   6  -9  -4   19.10    2.00
   6  -9  -4   21.20    2.10
   6  -9  -4   18.40    2.30
   6  -9  -4   21.10    1.80
  -9   3  -4   26.50    2.70
   3   6  -4   20.70    2.10
   9  -3   4   22.50    1.80
   9  -3   4   21.40    1.60
   9  -3   4   23.10    2.10
  -9   4  -4  167.98    7.40
   5  -9  -4  188.08    6.90
   4   5  -4  179.98    6.90
   4   5  -4  177.78    6.70
   5  -9  -4  183.28    7.90
   5  -9  -4  176.58    7.80
   5  -9  -4  185.78    6.70
   5  -9  -4  184.38    6.50
   9  -4   4  182.18    6.80
   9  -4   4  179.98    6.40
   9  -4   4  176.28    6.50
  -4  -5   4  172.08    9.00
   5   4  -4  188.28    7.00
   4  -9  -4  188.28    6.90
   4  -9  -4  179.08    8.10
  -9   5  -4  184.48    7.60
   5   4  -4  187.98    6.80
   4  -9  -4  181.68    6.60
   4  -9  -4  194.78    8.30
   4  -9  -4  181.98    6.90
  -5  -4   4  176.68    9.40
   9  -5   4  177.98    6.60
   9  -5   4  178.68    6.50
   9  -5   4  183.78    6.90
   6   3  -4    4.80    1.10
   3  -9  -4    4.10    1.40
   3  -9  -4    8.50    1.60
   3  -9  -4    5.20    1.10
   3  -9  -4    5.10    1.30
   6   3  -4    5.30    1.10
  -9   6  -4    4.00    1.10
   3  -9  -4    3.80    1.30
   9  -6   4    6.40    1.20
   9  -6   4    7.40    1.20
   9  -6   4    4.60    1.10
   9  -6   4    5.30    1.00
   7   2  -4  109.39    4.50
   2  -9  -4  115.09    4.60
   2  -9  -4  109.09    5.80
   7   2  -4  108.39    4.60
   2  -9  -4  109.99    5.90
   2  -9  -4  116.39    4.80
   2  -9  -4  110.99    4.40
   9  -7   4  107.69    4.60
  -7  -2   4  109.69    7.10
   9  -7   4  111.19    4.60
   9  -7   4  107.09    4.30
   9  -7   4  114.89    4.40
  -7  -2   4  104.29    5.60
   1  -9  -4   80.99    3.40
   8   1  -4   75.79    3.50
   8   1  -4   76.69    3.60
   1  -9  -4   77.39    4.60
   1  -9  -4   86.39    3.80
   1  -9  -4   81.29    4.50
  -8  -1   4   73.59    5.50
  -8  -1   4   81.19    4.80
   9  -8   4   78.79    3.30
   9  -8   4   75.69    3.30
   9  -8   4   74.59    3.40
   9  -8   4   74.89    3.50
   9  -8   4   76.69    3.50
   0  -9  -4   16.50    2.00
   9   0  -4   14.20    1.50
   9   0  -4   15.00    1.40
   0  -9  -4   14.30    1.50
   0  -9  -4   18.10    1.70
   0  -9  -4   19.40    2.00
  -9   0   4   16.40    2.40
   9  -9   4   14.60    1.40
   9  -9   4   14.70    1.50
   9  -9   4   11.20    1.40
  -9   0   4   13.60    2.60
  10  -1  -4   45.20    2.70
  -9  10  -4   48.70    2.30
  10  -1  -4   57.39    2.70
   1   9   4   47.10    2.20
   9 -10   4   43.50    2.00
 -10   1   4   49.60    3.00
 -10   1  -4   70.99    3.60
  10  -1   4   79.09    2.90
 -10   2  -4   30.00    2.50
 -10   2  -4   31.80    2.10
   8 -10  -4   30.50    2.00
   2   8  -4   30.50    1.70
   8 -10  -4   31.50    1.90
   8 -10  -4   31.10    1.90
   2   8  -4   29.70    1.90
  10  -2   4   32.00    1.90
 -10   3  -4    9.80    1.90
   7 -10  -4    9.10    1.20
   7 -10  -4    7.70    1.50
   7 -10  -4   10.20    1.40
 -10   3  -4    9.80    1.70
   3   7  -4   10.70    1.40
   7 -10  -4   12.60    1.70
   3   7  -4   11.10    1.30
  10  -3   4   11.60    1.40
 -10   4  -4   31.60    2.50
   6 -10  -4   29.10    1.90
   6 -10  -4   25.40    2.00
   6 -10  -4   27.60    2.50
   6 -10  -4   30.80    2.20
   4   6  -4   29.50    2.10
   4   6  -4   30.10    1.90
  10  -4   4   29.20    1.70
  10  -4   4   30.30    2.10
   5 -10  -4   30.10    2.00
   5 -10  -4   28.50    2.70
   5 -10  -4   30.80    2.30
   5   5  -4   33.40    2.10
 -10   5  -4   33.00    2.60
   5 -10  -4   33.20    2.30
   5   5  -4   31.50    2.10
   5 -10  -4   27.90    2.50
  10  -5   4   31.60    1.80
  -5  -5   4   28.30    3.20
  10  -5   4   31.50    2.10
   4 -10  -4   35.90    2.40
   6   4  -4   36.10    2.20
   4 -10  -4   42.00    2.40
   4 -10  -4   35.80    2.20
   6   4  -4   36.80    2.20
   4 -10  -4   33.20    2.90
 -10   6  -4   36.70    2.60
   4 -10  -4   36.50    3.10
  10  -6   4   36.10    2.00
  -6  -4   4   34.60    3.60
  10  -6   4   35.90    2.30
   3 -10  -4   14.70    2.30
   3 -10  -4   22.50    2.00
   7   3  -4   17.40    1.50
   3 -10  -4   19.40    1.70
   3 -10  -4   18.80    1.60
   7   3  -4   18.50    1.60
 -10   7  -4   16.50    1.80
   3 -10  -4   16.50    2.20
  10  -7   4   18.20    1.40
  10  -7   4   17.10    1.50
  -7  -3   4   17.10    2.80
  10  -7   4   19.10    1.70
   2 -10  -4   56.49    3.50
   2 -10  -4   61.59    2.90
   8   2  -4   57.99    2.60
   8   2  -4   59.69    2.60
   2 -10  -4   56.09    3.30
   2 -10  -4   56.59    2.60
  10  -8   4   58.39    2.70
  10  -8   4   57.29    2.50
  -8  -2   4   56.29    4.20
   9   1  -4    5.80    1.00
   1 -10  -4    8.60    1.40
   1 -10  -4    3.70    0.90
 -10   9  -4    6.70    1.20
  10  -9   4    5.00    0.70
  -9  -1   4    5.30    1.80
   6 -11  -4   23.90    2.10
 -11   5  -4   18.50    1.50
   6 -11  -4   17.80    1.40
  11  -5   4   16.90    1.30
   5 -11  -4   31.00    1.60
   5 -11  -4   28.00    2.70
 -11   6  -4   38.50    2.80
   5 -11  -4   30.20    1.90
  11  -6   4   30.70    1.70
   0   0  -5    0.70    0.40
   0   0  -5    1.50    1.00
   0   0  -5    0.40    0.50
   0   0   5    0.80    1.00
  -1   0  -5   56.19    4.10
  -1   0  -5   61.39    3.40
   1  -1  -5   65.49    3.00
   0   1  -5   63.79    4.00
   1  -1  -5   58.89    4.20
   1  -1  -5   61.09    3.50
   0   1  -5   65.99    3.30
   1   0   5   54.09    4.60
   0  -1   5   61.19    3.50
   0  -1   5   60.49    4.50
  -1   1   5   61.39    4.40
  -1   1  -5  600.94   19.70
   1   0  -5  619.54   21.10
   0  -1  -5  580.04   19.90
  -1   1  -5  631.44   18.90
   0  -1  -5  631.34   21.20
   1   0  -5  607.94   19.50
  -1   1  -5  599.54   20.70
   1   0  -5  609.44   20.00
   0   1   5  618.34   22.30
  -1   0   5  576.94   21.00
   1  -1   5  619.34   22.30
  -1  -1  -5 3091.29   93.29
  -1  -1  -5 2991.80   91.69
  -1   2  -5 3031.60   92.09
   2  -1  -5 3129.59   93.29
   2  -1  -5 2918.51   91.39
   2  -1  -5 3102.89   91.69
  -1   2  -5 3216.18   91.49
   1   1   5 3099.39   94.89
  -2   1   5 2961.70   92.39
   1  -2   5 3232.28   94.89
   1  -2   5 3115.89   91.39
  -2  -1  -5  648.24   21.80
   3  -2  -5  626.84   21.90
  -1   3  -5  640.54   22.10
   3  -2  -5  658.53   21.60
  -2  -1  -5  680.83   23.90
   1  -3   5  668.63   21.70
   2   1   5  645.34   24.80
   1  -3   5  658.53   24.70
  -2   0  -5 1686.93   53.99
   0   2  -5 1849.91   54.89
  -2   0  -5 1771.12   55.89
   2  -2  -5 1748.53   53.69
   0   2  -5 1869.21   54.59
   2  -2  -5 1815.42   54.39
   2  -2  -5 1780.42   55.69
   0  -2   5 1717.73   54.29
  -2   2   5 1785.52   56.19
   2   0   5 1920.01   57.79
   0  -2   5 1704.03   56.29
   1  -2  -5  338.77   12.20
  -2   1  -5  320.57   12.90
  -2   1  -5  306.57   11.60
   1  -2  -5  347.97   13.30
   1   1  -5  326.57   12.90
   1   1  -5  358.46   12.30
   2  -1   5  349.96   14.70
  -1  -1   5  318.97   12.90
  -1  -1   5  337.17   12.10
  -1   2   5  339.37   14.20
  -2   2  -5  333.67   12.80
   0  -2  -5  345.47   13.60
   0  -2  -5  333.77   12.50
  -2   2  -5  331.77   11.70
   2   0  -5  348.57   12.60
   0   2   5  344.37   15.00
   2  -2   5  365.46   15.20
  -2   0   5  331.67   12.40
   2  -2   5  346.57   11.80
  -2   0   5  341.97   12.40
  -2   3  -5  700.63   23.20
  -2   3  -5  729.53   23.60
  -1  -2  -5  703.83   23.80
  -1  -2  -5  746.93   25.40
   3  -1  -5  718.43   24.00
   1   2   5  734.13   27.10
  -3   1   5  682.43   25.20
   2  -3   5  698.33   22.90
  -3   1   5  710.13   23.40
   2  -3   5  712.33   26.90
  -2   4  -5  101.89    5.90
   4  -2  -5  100.49    6.00
  -2  -2  -5  104.29    5.80
  -2  -2  -5  106.99    7.00
   2  -4   5  107.39    8.00
  -4   2   5  100.39    5.20
   2   2   5  103.49    7.80
   2  -4   5   95.39    5.10
  -4   2   5  105.79    6.90
  -3  -2  -5   50.09    4.10
  -3  -2  -5   52.49    5.20
   5  -3  -5   51.29    4.50
  -2   5  -5   54.39    4.60
  -5   3   5   54.29    5.20
   2  -5   5   52.89    6.10
   3   2   5   49.10    5.70
  -3  -1  -5  677.23   24.50
  -3  -1  -5  601.34   21.50
   4  -3  -5  644.94   22.30
  -1   4  -5  659.63   22.70
   1  -4   5  647.44   21.80
   3   1   5  613.54   25.00
  -4   3   5  647.84   23.80
   1  -4   5  592.14   24.80
   3  -3  -5   70.79    4.30
  -3   0  -5   76.79    5.60
   3  -3  -5   79.39    5.40
   0   3  -5   80.39    5.00
  -3   0  -5   80.49    4.40
   3  -3  -5   77.69    4.40
  -3   3   5   74.39    5.50
   0  -3   5   77.29    4.60
   3   0   5   72.69    6.00
   0  -3   5   71.59    5.70
  -3   1  -5  624.54   19.90
   2  -3  -5  622.64   21.70
   1   2  -5  631.44   21.10
  -3   1  -5  574.34   21.80
   2  -3  -5  601.74   20.50
   3  -1   5  617.34   23.50
  -2   3   5  619.64   23.20
  -1  -2   5  607.34   20.70
  -1  -2   5  589.04   21.10
  -1  -2   5  605.44   21.80
   1  -3  -5  559.84   20.00
   2   1  -5  537.45   19.40
   1  -3  -5  581.54   19.30
  -3   2  -5  551.04   19.70
  -1   3   5  549.65   21.90
  -2  -1   5  543.75   19.00
  -2  -1   5  534.15   20.10
   3  -2   5  561.34   22.00
  -3   3  -5  584.14   21.00
   3   0  -5  652.33   21.90
   0  -3  -5  645.04   22.60
   0  -3  -5  623.04   21.50
  -3   3  -5  604.34   20.70
  -3   0   5  611.04   21.10
   3  -3   5  628.34   24.70
   0   3   5  625.04   24.70
  -3   0   5  631.64   22.90
  -3   4  -5    5.50    1.60
   4  -1  -5    4.80    1.70
  -1  -3  -5    3.90    1.40
  -1  -3  -5    5.00    1.80
   3  -4   5    5.70    2.40
   1   3   5    4.30    2.10
  -4   1   5    3.60    1.20
  -4   1   5    3.40    1.70
  -3   5  -5  796.62   26.80
  -2  -3  -5  732.63   26.10
  -2  -3  -5  754.72   28.10
   5  -2  -5  739.33   26.80
   3  -5   5  770.62   30.70
  -5   2   5  778.72   28.70
   2   3   5  681.23   29.50
   6  -3  -5  188.68    8.30
  -3  -3  -5  177.68    8.60
  -3   6  -5  153.08    6.10
  -3  -3  -5  168.48   10.50
  -3  -3  -5  156.88    5.90
  -3   6  -5  161.78    9.40
   6  -3  -5  160.38    6.10
   6  -3  -5  159.38    6.60
  -3  -3  -5  177.78    9.10
   6  -3  -5  137.19    6.30
   6  -3  -5  150.18    9.20
   3   3   5  171.68   11.70
   3  -6   5  168.68    7.70
  -6   3   5  166.28   10.60
   3  -6   5  157.38   11.90
   3  -6   5  160.58    7.30
   7  -4  -5   41.30    2.50
  -4  -3  -5   35.50    2.40
  -3   7  -5   35.50    2.50
   7  -4  -5   40.60    2.40
   7  -4  -5   40.20    3.00
   7  -4  -5   36.90    3.80
  -4  -3  -5   37.10    3.20
   7  -4  -5   42.20    2.70
  -4  -3  -5   39.80    4.50
  -4  -3  -5   35.80    4.10
   3  -7   5   38.90    2.70
   3  -7   5   36.20    3.30
   4   3   5   36.70    2.50
   3  -7   5   38.70    3.10
   6  -4  -5  249.18    9.00
  -4  -2  -5  239.38    9.90
  -4  -2  -5  253.67   11.10
   6  -4  -5  244.38    8.60
  -4  -2  -5  256.87   13.90
  -4  -2  -5  237.28    8.20
  -2   6  -5  236.78   12.20
  -4  -2  -5  224.78   10.80
   6  -4  -5  235.88    8.40
   6  -4  -5  245.88   12.20
  -2   6  -5  235.68    8.40
   4   2   5  230.78    8.40
   2  -6   5  245.28   15.10
  -6   4   5  257.47   13.50
   2  -6   5  240.38    8.60
   2  -6   5  233.88    9.60
  -4  -1  -5  392.26   15.20
  -4  -1  -5  402.56   18.20
  -1   5  -5  371.66   16.40
   5  -4  -5  398.96   16.30
  -5   4   5  400.86   17.30
   1  -5   5  437.36   19.70
   4   1   5  400.56   18.70
   1  -5   5  419.06   15.70
   0   4  -5   20.90    3.00
   4  -4  -5   21.30    2.70
  -4   0  -5   19.70    3.30
   4   0   5   28.60    4.10
  -4   4   5   21.00    3.00
   0  -4   5   23.70    3.70
   0  -4   5   22.40    2.70
   3  -4  -5  547.25   20.10
   3  -4  -5  532.35   18.70
  -4   1  -5  518.65   20.80
   1   3  -5  535.15   19.80
   4  -1   5  554.64   22.10
  -1  -3   5  555.74   19.40
  -1  -3   5  531.35   20.70
  -4   2  -5  779.42   30.60
   2  -4  -5  953.10   30.10
   2  -4  -5  932.21   30.80
   2   2  -5  940.81   30.80
  -2  -2   5  937.91   30.20
   4  -2   5  951.00   33.40
  -2  -2   5  865.71   30.70
   3   1  -5  262.07   12.00
   1  -4  -5  303.87   11.90
   1  -4  -5  271.87   12.10
  -4   3  -5  274.07   11.70
   4  -3   5  300.07   14.60
  -3  -1   5  272.87   12.70
  -3  -1   5  268.37   11.40
   4   0  -5  116.79    7.00
  -4   4  -5   95.49    5.80
   0  -4  -5  108.29    6.90
   0  -4  -5  108.09    6.50
  -4   0   5  107.89    6.00
   0   4   5  109.49    8.70
  -4   0   5  112.99    7.70
   4  -4   5  110.79    8.60
  -4   5  -5  272.47   12.20
   5  -1  -5  275.17   12.70
  -1  -4  -5  275.37   12.30
   4  -5   5  300.37   16.10
   1   4   5  254.47   15.00
  -5   1   5  265.17   14.00
   6  -2  -5  178.88   10.80
   6  -2  -5  196.18    7.70
  -2  -4  -5  206.18    9.70
  -2  -4  -5  212.98   10.60
   6  -2  -5  196.78   10.90
  -2  -4  -5  197.78    7.10
  -2  -4  -5  192.78    6.90
   6  -2  -5  199.68    8.50
  -2  -4  -5  192.18    8.10
  -4   6  -5  198.98   10.60
   6  -2  -5  196.18    7.20
   6  -2  -5  187.68    7.10
   4  -6   5  197.08    8.20
   4  -6   5  202.98   13.80
   2   4   5  198.18   13.40
   4  -6   5  205.78    7.30
   4  -6   5  194.58    8.30
  -6   2   5  206.78   12.40
   7  -3  -5  139.39    5.50
   7  -3  -5  142.89    5.70
  -3  -4  -5  141.39    8.60
   7  -3  -5  148.79    5.90
   7  -3  -5  145.09    6.30
  -3  -4  -5  138.19    5.40
  -3  -4  -5  138.99    8.40
   7  -3  -5  144.09    7.20
  -3  -4  -5  143.49    6.60
   4  -7   5  142.19    5.90
   4  -7   5  143.29    6.90
   4  -7   5  138.29    5.20
   4  -7   5  138.89    6.70
  -4   8  -5  470.05   15.90
   8  -4  -5  507.25   16.10
   8  -4  -5  506.35   15.80
   8  -4  -5  506.35   17.70
  -4  -4  -5  500.05   19.80
  -4  -4  -5  493.25   15.60
   8  -4  -5  500.85   16.00
   8  -4  -5  509.85   16.80
   4  -8   5  490.95   17.20
   4  -8   5  408.86   15.80
   4  -8   5  477.65   15.30
   4  -8   5  486.95   17.60
   4  -8   5  498.95   16.10
   4   4   5  498.95   16.00
   9  -5  -5   91.89    4.10
   9  -5  -5   92.49    4.30
  -4   9  -5   91.09    4.10
   9  -5  -5   98.89    5.10
   9  -5  -5   88.99    5.20
   9  -5  -5   90.19    4.20
  -5  -4  -5   93.89    6.70
   4  -9   5  101.59    5.50
   5   4   5  100.09    4.40
   4  -9   5   94.99    5.10
   4  -9   5   88.19    4.00
   5   4   5   93.89    3.90
   8  -5  -5   57.49    3.10
   8  -5  -5   61.79    3.90
   8  -5  -5   56.09    3.20
   8  -5  -5   56.29    3.20
  -5  -3  -5   51.49    5.10
  -5  -3  -5   56.49    4.10
  -3   8  -5   55.09    3.10
   5   3   5   57.59    3.20
   3  -8   5   47.30    2.90
   3  -8   5   56.59    3.30
   3  -8   5   56.19    3.80
   3  -8   5   58.99    4.30
   7  -5  -5  506.15   17.10
  -5  -2  -5  526.65   20.10
   7  -5  -5  533.85   16.70
   7  -5  -5  523.75   16.40
  -2   7  -5  502.55   16.50
  -5  -2  -5  508.95   18.30
   7  -5  -5  522.05   16.50
   2  -7   5  490.15   18.00
   2  -7   5  506.95   16.30
   5   2   5  507.65   16.60
   2  -7   5  490.05   17.40
   2  -7   5  536.35   16.90
  -5  -1  -5  371.56   14.10
   6  -5  -5  368.76   12.30
   6  -5  -5  375.46   12.80
  -5  -1  -5  374.56   15.00
  -1   6  -5  364.36   12.30
   6  -5  -5  390.26   12.50
   6  -5  -5  363.16   12.10
   5   1   5  377.36   12.10
   1  -6   5  397.06   15.70
   5   1   5  378.06   12.40
   1  -6   5  361.66   13.60
   0   5  -5   29.10    3.90
  -5   0  -5   28.80    4.40
   0  -5   5   26.00    4.60
   0  -5   5   34.00    3.70
  -5   1  -5  533.75   22.70
   1   4  -5  581.14   21.80
  -1  -4   5  592.04   21.10
  -4   5   5  551.74   20.90
   3  -5  -5  136.69    7.10
  -5   2  -5  126.99    8.20
   2   3  -5  134.59    8.00
   3  -5  -5  134.29    9.50
  -2  -3   5  136.49    7.50
   5  -2   5  144.49    9.50
   3   2  -5   83.59    6.10
   2  -5  -5   71.29    7.10
   2  -5  -5   82.79    5.40
  -5   3  -5   75.99    5.70
  -3  -2   5   80.79    6.20
   5  -3   5   76.59    7.00
  -3  -2   5   76.19    5.30
   1  -5  -5    9.40    2.00
   4   1  -5    6.00    2.10
  -4  -1   5    6.20    2.30
   5  -4   5    7.00    2.90
  -4  -1   5    5.80    1.80
   5   0  -5   47.40    4.80
   0  -5  -5   47.70    4.50
   0   5   5   43.90    6.10
  -5   0   5   45.90    5.30
  -5   0   5   41.70    3.80
   5  -5   5   42.70    5.80
  -1  -5  -5   26.00    3.70
  -1  -5  -5   23.70    1.70
  -1  -5  -5   27.50    2.50
   6  -1  -5   30.40    2.30
   6  -1  -5   24.70    1.90
   6  -1  -5   17.20    3.80
  -1  -5  -5   23.70    2.00
   6  -1  -5   24.10    2.90
   6  -1  -5   26.60    1.90
   6  -1  -5   27.20    2.10
   5  -6   5   24.20    1.70
   5  -6   5   23.60    2.50
   5  -6   5   23.90    2.00
   5  -6   5   22.70    2.40
   5  -6   5   25.70    2.00
   7  -2  -5  180.08    8.40
  -2  -5  -5  172.48    6.70
  -2  -5  -5  179.48   10.20
  -2  -5  -5  167.28    6.40
   7  -2  -5  165.48    9.30
   7  -2  -5  169.38    6.60
   7  -2  -5  172.68    7.20
  -2  -5  -5  175.58    9.50
  -2  -5  -5  172.08    7.60
   7  -2  -5  177.68    6.80
   7  -2  -5  176.48    6.50
  -2  -5  -5  190.08    7.60
   5  -7   5  167.08    6.20
   5  -7   5  179.68    7.90
   5  -7   5  166.78    7.70
   5  -7   5  178.08    6.80
   5  -7   5  172.98    6.80
  -3  -5  -5  178.28    9.80
   8  -3  -5  174.18    7.40
  -3  -5  -5  172.48   10.20
   8  -3  -5  176.88    6.80
  -5   8  -5  169.98    6.80
   8  -3  -5  182.48    6.70
   8  -3  -5  179.78    6.90
   8  -3  -5  185.48    8.60
  -3  -5  -5  179.68    7.60
  -3  -5  -5  175.88    6.50
   5  -8   5  170.58    7.90
   5  -8   5  175.58    7.90
   5  -8   5  168.68    6.80
   5  -8   5  172.48    6.30
   9  -4  -5  344.77   13.20
  -5   9  -5  345.97   11.80
   9  -4  -5  349.67   11.90
   9  -4  -5  349.57   11.70
   9  -4  -5  371.16   12.70
  -4  -5  -5  345.87   14.80
   9  -4  -5  375.56   12.10
   4   5   5  359.26   11.90
   5  -9   5  353.46   13.20
   5  -9   5  347.67   11.40
   5  -9   5  362.16   12.00
   5  -9   5  363.26   13.20
  10  -5  -5   23.50    2.50
  10  -5  -5   14.90    1.60
  10  -5  -5   13.90    1.60
  -5  10  -5   15.10    1.50
  10  -5  -5   15.70    1.50
  -5  -5  -5   13.40    2.60
   5   5   5   15.70    1.40
   5 -10   5   14.40    2.00
   5 -10   5   15.70    2.10
   5   5   5   17.00    1.60
  10  -6  -5   50.29    2.70
  10  -6  -5   50.99    2.50
  -4  10  -5   53.69    2.80
  10  -6  -5   58.29    3.30
  -6  -4  -5   51.49    4.30
  10  -6  -5   50.69    2.70
   6   4   5   50.99    2.70
   4 -10   5   50.09    3.40
   4 -10   5   51.99    3.20
   9  -6  -5  153.08    6.30
   9  -6  -5  143.69    5.60
  -6  -3  -5  138.79    8.10
  -3   9  -5  142.99    5.70
   9  -6  -5  145.89    5.40
  -3   9  -5  130.49    5.40
   9  -6  -5  146.99    5.70
  -6  -3  -5  138.59    6.60
   3  -9   5  142.49    6.80
   3  -9   5  137.29    6.30
   3  -9   5  129.09    5.30
   6   3   5  135.19    5.20
   6   3   5  144.59    5.60
   8  -6  -5   35.70    2.50
  -6  -2  -5   36.70    3.30
  -2   8  -5   31.20    2.20
  -2   8  -5   34.70    2.70
   8  -6  -5   31.60    3.20
  -6  -2  -5   31.00    4.00
   8  -6  -5   29.90    2.40
   8  -6  -5   33.10    2.30
   2  -8   5   34.00    3.20
   2  -8   5   40.60    3.00
   2  -8   5   30.10    2.20
   6   2   5   34.90    2.40
   6   2   5   33.80    2.30
   7  -6  -5   48.30    2.90
   7  -6  -5   51.99    2.80
  -1   7  -5   47.60    2.70
  -1   7  -5   51.59    3.20
   7  -6  -5   48.90    3.00
  -6  -1  -5   48.10    3.90
   1  -7   5   48.60    2.80
   6   1   5   48.20    2.70
   6   1   5   49.10    2.90
   1  -7   5   50.89    3.80
   0   6  -5  264.37    9.50
   6  -6  -5  265.47    9.20
   6  -6  -5  267.77    9.30
  -6   0  -5  287.87   11.50
  -6   0  -5  267.37    9.90
  -6   0  -5  263.87   11.00
   6  -6  -5  252.87    9.00
   0   6  -5  263.27    9.20
   0  -6   5  270.87   12.80
   6   0   5  257.87    9.30
   0  -6   5  264.97   10.40
   0  -6   5  256.07    9.00
   6   0   5  262.67    9.00
   1   5  -5  314.37   10.90
   5  -6  -5  326.47   10.80
  -6   1  -5  325.77   11.80
  -6   1  -5  331.37   12.60
   1   5  -5  327.47   11.20
  -1  -5   5  330.87   11.90
   6  -1   5  322.17   11.00
   6  -1   5  331.47   10.80
  -1  -5   5  339.57   14.80
  -6   2  -5  600.44   19.80
  -6   2  -5  612.84   20.50
   4  -6  -5  632.94   30.00
   2   4  -5  597.44   19.10
  -6   2  -5  546.65   24.10
   2   4  -5  631.74   24.00
   6  -2   5  601.24   19.00
  -2  -4   5  629.24   23.00
   6  -2   5  599.64   18.70
   3   3  -5  187.18    6.90
   3  -6  -5  187.48    9.20
  -6   3  -5  170.58    7.30
   3  -6  -5  183.68   12.60
   3   3  -5  189.38   10.60
   6  -3   5  184.08    6.50
  -3  -3   5  183.28    9.60
   2  -6  -5  220.98    8.80
   2  -6  -5  212.68    7.60
   4   2  -5  227.78   11.90
  -6   4  -5  208.48    8.30
   2  -6  -5  220.68    7.50
   4   2  -5  216.38    7.90
   4   2  -5  231.28   10.50
   2  -6  -5  244.68   11.10
   2  -6  -5  210.58    8.90
   6  -4   5  190.88    8.80
  -4  -2   5  223.08   10.70
   6  -4   5  211.38    7.40
  -4  -2   5  213.48   12.10
   1  -6  -5    4.10    1.10
  -6   5  -5    5.60    1.20
   1  -6  -5    6.20    1.50
   5   1  -5    3.10    0.80
   1  -6  -5    2.70    1.00
   5   1  -5    3.00    0.90
   5   1  -5    2.30    0.90
   5   1  -5    0.50    1.00
   1  -6  -5    1.80    1.40
   1  -6  -5    3.40    0.80
  -5  -1   5    3.60    1.60
   6  -5   5    1.60    0.90
   6  -5   5    3.50    0.80
   6  -5   5    3.50    0.90
   6  -5   5    2.80    1.00
   0  -6  -5  120.79    6.00
   6   0  -5  113.49    4.80
   6   0  -5  107.49    6.10
   0  -6  -5  120.19    4.70
   6   0  -5  116.09    7.60
   0  -6  -5  128.29    8.30
   0  -6  -5  112.79    4.90
   6   0  -5  117.89    5.00
   6   0  -5  120.99    4.90
   0  -6  -5  118.29    6.00
   6   0  -5  122.89    5.40
   6  -6   5  114.49    4.60
   6  -6   5  117.19    5.90
   6  -6   5  115.89    4.80
   6  -6   5  120.19    5.00
   7  -1  -5  531.15   20.70
  -1  -6  -5  546.05   18.80
   7  -1  -5  553.94   17.20
   7  -1  -5  516.25   19.00
   7  -1  -5  562.54   17.50
  -1  -6  -5  528.75   16.90
  -1  -6  -5  504.05   20.20
   7  -1  -5  542.95   17.20
  -1  -6  -5  533.35   18.60
  -1  -6  -5  563.84   22.30
   7  -1  -5  530.05   17.90
  -1  -6  -5  543.55   17.30
   6  -7   5  527.85   16.90
   6  -7   5  551.74   17.40
   6  -7   5  551.34   18.80
   6  -7   5  529.75   17.30
   6  -7   5  521.45   17.00
  -2  -6  -5    2.80    1.90
   8  -2  -5    2.80    1.60
  -2  -6  -5    3.80    1.20
  -2  -6  -5    2.00    1.10
   8  -2  -5    5.70    1.30
   8  -2  -5    5.50    1.40
  -2  -6  -5    2.30    1.10
   8  -2  -5    5.40    1.30
   6  -8   5    4.10    1.20
   6  -8   5    3.50    1.30
   6  -8   5    3.60    1.10
   6  -8   5    4.90    1.00
   6  -8   5    4.80    1.00
  -6   9  -5   42.70    2.70
   9  -3  -5   43.60    3.30
   9  -3  -5   43.40    2.70
   9  -3  -5   39.50    2.40
   9  -3  -5   44.90    2.60
  -3  -6  -5   38.60    2.40
  -3  -6  -5   40.60    4.20
   9  -3  -5   37.80    3.70
   3   6   5   43.10    2.80
   6  -9   5   40.70    2.70
   6  -9   5   40.90    2.30
   6  -9   5   39.90    3.40
   6  -9   5   38.10    3.10
  -6  10  -5   59.89    2.90
  10  -4  -5   58.29    2.70
  10  -4  -5   59.39    2.80
  10  -4  -5   64.59    3.60
  -4  -6  -5   54.69    4.10
  10  -4  -5   63.09    3.00
   6 -10   5   58.29    2.60
   4   6   5   60.39    2.70
   6 -10   5   63.99    3.70
   6 -10   5   57.59    3.40
   4   6   5   62.99    3.00
  -7  -3  -5    1.20    0.90
  10  -7  -5    1.40    0.90
  -7  -3  -5    1.70    0.70
  -3  10  -5    2.80    0.80
  10  -7  -5    0.70    0.80
  10  -7  -5    2.10    0.70
   7   3   5    2.10    0.70
   3 -10   5    2.00    0.90
   9  -7  -5   63.79    3.30
   9  -7  -5   67.69    3.20
   9  -7  -5   65.79    3.40
  -7  -2  -5   67.59    5.30
  -7  -2  -5   65.79    4.20
  -2   9  -5   69.89    3.50
   7   2   5   69.69    3.40
   7   2   5   64.89    2.90
   2  -9   5   68.39    4.30
   8  -7  -5   36.50    2.70
   8  -7  -5   37.30    2.50
  -7  -1  -5   34.80    3.30
  -1   8  -5   41.30    2.80
   8  -7  -5   36.20    2.40
   1  -8   5   37.50    3.30
   7   1   5   38.10    2.30
   7   1   5   38.30    2.60
  -7   0  -5  310.37   11.20
   0   7  -5  321.27   10.90
  -7   0  -5  304.47   12.40
  -7   0  -5  322.17   16.20
   7  -7  -5  316.27   10.50
   7  -7  -5  306.87   10.70
   7  -7  -5  290.37   10.40
   0  -7   5  280.17   13.90
   0  -7   5  316.57   11.80
   7   0   5  312.47   10.30
   7   0   5  311.17   10.70
   6  -7  -5   10.30    1.40
   6  -7  -5   12.10    1.50
  -7   1  -5   13.30    2.30
  -7   1  -5   12.60    2.00
   6  -7  -5   11.10    1.70
   1   6  -5   11.90    1.70
  -1  -6   5    9.40    2.60
   7  -1   5   10.50    1.30
   7  -1   5   11.30    1.60
  -7   2  -5  133.79    6.20
  -7   2  -5  121.99    5.80
   2   5  -5  118.09    5.20
   5  -7  -5  117.89    4.80
   5  -7  -5  120.89    4.90
   5  -7  -5  114.39    4.60
  -2  -5   5  123.09    8.00
   7  -2   5  120.99    4.80
   7  -2   5  118.39    5.00
   4  -7  -5   55.19    2.90
   4  -7  -5   55.89    3.80
   4  -7  -5   56.69    3.80
   4  -7  -5   55.89    3.00
   3   4  -5   54.09    3.10
   4  -7  -5   54.59    2.80
  -7   3  -5   56.79    3.60
  -3  -4   5   51.19    5.10
   7  -3   5   58.09    2.90
   7  -3   5   55.39    3.00
  -3  -4   5   59.59    5.40
   3  -7  -5  181.58    6.80
   4   3  -5  186.08    6.80
   3  -7  -5  186.58    6.60
  -7   4  -5  177.48    7.60
   4   3  -5  187.68    7.10
   3  -7  -5  182.08    8.00
   3  -7  -5  185.28    8.30
   7  -4   5  183.08    6.80
   7  -4   5  184.78    6.70
  -4  -3   5  185.68   10.10
   5   2  -5   17.40    1.60
   5   2  -5   19.40    1.90
   5   2  -5   19.80    1.80
   2  -7  -5   19.00    1.70
   2  -7  -5   20.00    2.60
   2  -7  -5   17.40    3.10
   5   2  -5   25.90    2.40
   2  -7  -5   18.60    1.90
  -7   5  -5   19.50    2.20
   2  -7  -5   19.30    2.50
   7  -5   5   20.40    1.80
   7  -5   5   17.60    2.20
  -5  -2   5   18.00    3.10
   7  -5   5   16.90    1.80
   7  -5   5   21.10    1.70
   1  -7  -5   73.59    4.90
   6   1  -5   72.89    3.50
   1  -7  -5   79.89    6.40
   6   1  -5   76.39    4.70
   6   1  -5   73.19    3.50
   1  -7  -5   75.29    3.50
   1  -7  -5   75.09    3.80
  -7   6  -5   65.39    3.90
   1  -7  -5   73.69    4.70
   6   1  -5   73.19    3.80
   7  -6   5   71.19    4.50
   7  -6   5   72.79    3.70
   7  -6   5   74.29    3.40
   7  -6   5   70.39    3.50
   0  -7  -5   77.99    4.70
   0  -7  -5   80.99    3.70
   7   0  -5   82.59    4.00
   7   0  -5   81.49    3.80
   0  -7  -5   78.09    5.00
   7   0  -5   69.19    4.00
   7   0  -5   73.39    4.90
   0  -7  -5   78.69    6.70
   0  -7  -5   81.29    3.90
   7   0  -5   78.89    3.60
   7  -7   5   74.29    4.60
   7  -7   5   70.69    3.70
   7  -7   5   78.79    3.70
   7  -7   5   74.49    3.80
   7  -7   5   75.89    3.50
  -1  -7  -5   10.40    1.50
  -1  -7  -5   10.50    1.90
   8  -1  -5    8.70    1.60
   8  -1  -5    8.90    1.40
  -1  -7  -5   11.30    2.00
   8  -1  -5    9.80    1.40
   7  -8   5   10.20    1.40
   7  -8   5   10.50    1.50
   7  -8   5    5.60    1.20
   7  -8   5    8.20    2.00
   9  -2  -5   87.59    4.50
   9  -2  -5   91.29    3.90
  -2  -7  -5   97.39    4.70
  -7   9  -5   91.09    4.20
   9  -2  -5   90.79    3.90
   9  -2  -5   96.99    4.20
  -2  -7  -5   87.09    3.80
   9  -2  -5   85.19    5.20
   7  -9   5   99.79    3.90
   7  -9   5   84.09    4.00
   7  -9   5   97.29    4.20
   7  -9   5   92.39    4.90
  10  -3  -5   31.50    1.90
  10  -3  -5   31.50    2.00
  10  -3  -5   31.90    1.80
  -7  10  -5   34.00    2.10
  10  -3  -5   32.40    2.40
   7 -10   5   32.90    2.00
 -10   3   5   30.00    2.90
   7 -10   5   32.50    1.80
   7 -10   5   32.40    2.60
   3   7   5   32.60    2.10
  -8  -2  -5   65.99    3.40
  -8  -2  -5   70.49    4.20
  -2  10  -5   72.89    3.00
  10  -8  -5   64.99    2.90
  10  -8  -5   70.49    3.00
  10  -8  -5   73.99    3.00
   2 -10   5   69.59    3.60
   8   2   5   70.29    2.90
  -8  -1  -5  145.09    6.90
   9  -8  -5  146.79    5.30
  -1   9  -5  141.19    5.50
   9  -8  -5  140.39    5.40
  -8  -1  -5  143.49    6.50
   9  -8  -5  138.89    5.30
   8   1   5  146.79    5.40
   1  -9   5  138.09    6.20
   8  -8  -5    2.70    1.00
   8  -8  -5    1.80    1.00
  -8   0  -5    2.90    1.10
   0   8  -5    5.00    1.20
   8  -8  -5    2.80    1.10
   8   0   5    3.40    1.00
   8   0   5    2.70    0.80
   7  -8  -5   31.80    2.20
  -8   1  -5   31.50    3.10
   1   7  -5   32.60    2.40
   7  -8  -5   29.60    2.40
  -8   1  -5   31.90    2.70
   7  -8  -5   28.60    2.20
   8  -1   5   34.20    2.50
   8  -1   5   32.20    2.10
   2   6  -5   41.10    2.70
   6  -8  -5   40.70    2.60
  -8   2  -5   36.40    3.40
   6  -8  -5   40.10    2.80
   6  -8  -5   36.20    2.50
  -8   2  -5   39.40    3.10
   6  -8  -5   37.80    2.30
   8  -2   5   43.20    2.70
  -2  -6   5   39.20    4.80
   8  -2   5   42.40    2.40
   5  -8  -5   70.79    3.30
   5  -8  -5   67.29    3.50
   5  -8  -5   70.99    4.30
   3   5  -5   72.09    3.80
   5  -8  -5   68.89    3.40
  -8   3  -5   70.39    4.20
   8  -3   5   65.29    3.20
  -3  -5   5   67.39    6.00
   8  -3   5   69.99    3.50
   4  -8  -5    4.90    1.10
   4  -8  -5    5.10    1.30
   4  -8  -5    4.60    1.40
   4   4  -5    6.00    1.20
   4   4  -5    7.90    1.40
   4  -8  -5    6.70    1.30
   4  -8  -5    5.80    1.30
  -8   4  -5    5.30    1.30
   8  -4   5    7.70    1.50
   8  -4   5    7.70    1.30
  -4  -4   5    3.40    1.30
  -4  -4   5    6.00    2.30
  -8   5  -5  191.18    7.90
   3  -8  -5  192.18    7.00
   3  -8  -5  192.78    7.20
   5   3  -5  193.68    7.00
   3  -8  -5  191.68    6.90
   3  -8  -5  199.58    8.60
   3  -8  -5  193.68    8.70
   5   3  -5  191.18    7.30
  -5  -3   5  180.38   10.00
   8  -5   5  189.98    6.90
   8  -5   5  190.78    7.10
   8  -5   5  183.88    6.90
   6   2  -5  476.25   15.30
   2  -8  -5  491.25   17.00
   6   2  -5  458.15   15.50
   2  -8  -5  463.95   15.10
   2  -8  -5  480.45   17.30
  -8   6  -5  463.95   16.00
   6   2  -5  480.15   16.60
   2  -8  -5  499.25   15.20
   2  -8  -5  462.15   15.40
   8  -6   5  475.45   16.30
  -6  -2   5  484.35   19.40
   8  -6   5  461.95   15.30
   8  -6   5  480.15   15.10
   8  -6   5  462.55   15.30
   7   1  -5    7.20    1.30
   7   1  -5    7.30    1.40
   1  -8  -5    6.50    1.70
   7   1  -5   11.90    2.00
   1  -8  -5    7.90    2.20
   1  -8  -5    8.00    1.50
   1  -8  -5    8.10    1.40
  -7  -1   5    4.90    1.80
   8  -7   5    5.10    1.30
   8  -7   5    9.30    1.50
   8  -7   5    5.20    1.10
   8  -7   5    7.80    1.30
   0  -8  -5   99.29    5.40
   0  -8  -5  101.69    5.30
   8   0  -5   96.29    4.20
   0  -8  -5  100.69    4.20
   8   0  -5   98.09    4.40
   0  -8  -5  102.39    4.50
   8  -8   5   96.69    5.00
   8  -8   5  100.69    4.20
  -8   0   5   96.79    6.80
   8  -8   5  101.49    4.40
   8  -8   5  100.79    4.10
   8  -8   5   88.89    5.20
  -1  -8  -5   26.90    2.40
   9  -1  -5   18.10    2.00
  -8   9  -5   25.30    2.10
   9  -1  -5   19.60    1.70
  -1  -8  -5   24.30    2.30
   9  -1  -5   22.00    1.90
  -1  -8  -5   21.70    1.80
   8  -9   5   19.60    2.20
  -9   1   5   24.40    3.10
   8  -9   5   20.30    1.60
   8  -9   5   17.10    1.70
   8  -9   5   22.00    1.70
  -8  10  -5   68.29    2.90
  10  -2  -5   64.89    3.00
  10  -2  -5   62.49    2.80
  10  -2  -5   60.69    2.60
   8 -10   5   67.09    2.60
   8 -10   5   54.49    2.70
   8 -10   5   64.19    3.20
   2   8   5   67.99    2.80
 -10   2   5   67.39    3.70
   9  -9  -5  109.49    4.00
  -9   0  -5  105.39    5.00
   0   9  -5  106.89    4.20
   9  -9  -5  107.19    4.10
   9   0   5  110.89    4.10
   8  -9  -5   27.50    1.90
  -9   1  -5   26.90    2.70
   8  -9  -5   26.90    1.90
  -9   1  -5   28.30    2.20
   1   8  -5   32.70    2.20
   8  -9  -5   25.30    2.10
   9  -1   5   27.60    1.60
   9  -1   5   29.30    2.00
  -9   2  -5    1.70    0.90
   7  -9  -5    1.30    1.00
   7  -9  -5    2.50    1.20
   2   7  -5    2.20    0.90
  -9   2  -5    1.90    1.00
   7  -9  -5    1.00    0.80
   9  -2   5    2.10    0.90
   9  -2   5    2.40    0.70
   6  -9  -5   44.60    2.40
   3   6  -5   43.20    2.70
  -9   3  -5   47.70    3.50
  -9   3  -5   46.70    3.20
   6  -9  -5   42.30    2.60
   6  -9  -5   40.00    2.60
   9  -3   5   46.00    2.40
   9  -3   5   46.90    2.70
   4   5  -5   58.69    3.00
   5  -9  -5   55.19    2.80
   5  -9  -5   55.49    3.10
   5  -9  -5   54.49    3.80
  -9   4  -5   58.79    3.70
   5  -9  -5   51.19    3.00
   4   5  -5   58.99    3.20
   9  -4   5   57.89    2.80
  -4  -5   5   52.29    4.60
   9  -4   5   59.19    3.10
   4  -9  -5    9.90    2.10
   4  -9  -5    9.40    2.30
   5   4  -5   11.40    1.70
   4  -9  -5   12.60    2.00
   4  -9  -5    8.80    1.50
   5   4  -5   11.80    1.50
   4  -9  -5   10.30    1.80
  -9   5  -5   14.60    2.10
  -5  -4   5   11.10    2.70
   9  -5   5   14.00    1.50
   9  -5   5   11.00    1.60
   6   3  -5   54.89    2.90
  -9   6  -5   54.29    3.40
   3  -9  -5   51.69    2.80
   3  -9  -5   57.19    3.00
   6   3  -5   53.39    3.00
   3  -9  -5   52.29    4.00
   3  -9  -5   52.29    3.90
   3  -9  -5   53.09    3.10
  -6  -3   5   52.49    4.80
   9  -6   5   55.19    3.00
   9  -6   5   54.39    2.70
   9  -6   5   49.90    2.70
   2  -9  -5  224.78    7.70
   2  -9  -5  221.18    7.50
   7   2  -5  213.98    7.50
   2  -9  -5  222.58    7.80
   7   2  -5  210.58    7.70
   2  -9  -5  215.48    9.10
   2  -9  -5  210.78    8.80
   9  -7   5  220.18    7.40
   9  -7   5  215.98    7.50
   9  -7   5  203.98    7.50
   1  -9  -5  148.39    5.50
   8   1  -5  143.69    5.20
   1  -9  -5  136.89    6.40
   1  -9  -5  146.49    6.40
   8   1  -5  133.59    5.40
   1  -9  -5  137.49    5.20
  -8  -1   5  142.09    6.50
   9  -8   5  149.09    5.20
   9  -8   5  141.69    5.20
  -8  -1   5  141.39    7.70
   0  -9  -5   47.60    2.90
   0  -9  -5   51.99    2.40
   9   0  -5   45.70    2.40
   0  -9  -5   48.20    3.00
   9   0  -5   47.50    2.20
  -9   9  -5   52.99    2.60
   9  -9   5   48.80    2.20
   9  -9   5   44.50    2.60
   9  -9   5   46.40    2.20
  -9   0   5   50.29    3.80
  -9   0   5   48.10    3.30
 -10   2  -5   16.90    1.50
   2   8  -5   16.30    1.30
 -10   2  -5   15.80    1.90
   8 -10  -5   18.60    2.00
   2   8  -5   12.00    1.10
  10  -2   5   18.00    1.30
   3   7  -5    0.00    0.60
   7 -10  -5   -1.40    0.80
   3   7  -5    0.30    0.50
 -10   3  -5    1.00    0.80
   7 -10  -5   -1.40    0.60
 -10   3  -5    0.50    0.70
   7 -10  -5    0.20    0.60
  10  -3   5   -0.10    0.60
  10  -3   5    0.20    0.50
   6 -10  -5   58.19    2.80
 -10   4  -5   63.29    3.30
   6 -10  -5   60.49    3.40
   4   6  -5   61.89    2.70
   4   6  -5   59.49    2.90
   6 -10  -5   55.39    2.60
   6 -10  -5   58.09    2.90
  10  -4   5   60.29    2.50
  10  -4   5   63.99    2.90
   5   5  -5   27.40    1.70
   5 -10  -5   28.60    2.00
   5   5  -5   27.20    1.90
   5 -10  -5   24.50    2.50
   5 -10  -5   25.30    2.00
 -10   5  -5   28.50    2.30
   5 -10  -5   24.80    1.80
  -5  -5   5   25.00    2.70
  10  -5   5   29.00    1.90
  10  -5   5   26.40    1.70
   4 -10  -5   65.39    3.90
 -10   6  -5   70.09    3.60
   6   4  -5   64.39    3.00
   4 -10  -5   75.79    3.90
   4 -10  -5   70.99    4.00
   6   4  -5   68.59    3.20
   4 -10  -5   72.79    3.30
   4 -10  -5   67.89    3.00
  10  -6   5   72.59    2.90
  -6  -4   5   72.89    4.80
  10  -6   5   72.59    3.10
   7   3  -5   30.10    1.90
   3 -10  -5   25.50    2.50
   3 -10  -5   27.60    2.50
   7   3  -5   29.90    1.70
   3 -10  -5   28.90    1.90
   3 -10  -5   33.00    2.20
  -7  -3   5   28.50    3.20
  10  -7   5   29.30    1.80
  10  -7   5   30.90    1.70
   8   2  -5   66.99    2.70
   2 -10  -5   70.59    3.00
   8   2  -5   64.29    2.80
 -10   8  -5   66.59    2.80
   2 -10  -5   69.99    2.80
   2 -10  -5   65.99    3.50
   2 -10  -5   64.89    3.50
  10  -8   5   64.59    2.60
  10  -8   5   65.09    2.70
  -8  -2   5   63.49    4.20
   0   0  -6  104.89    5.30
   0   0  -6  109.39    6.20
   0   0   6  109.69    7.00
   0   1  -6 1093.79   34.40
  -1   0  -6 1023.00   34.60
   1  -1  -6 1036.80   34.70
  -1   0  -6 1053.29   33.20
   1  -1  -6 1056.69   33.30
   0   1  -6 1037.00   32.40
   1   0   6 1085.69   36.50
  -1   1   6 1045.50   35.40
   0  -1   6 1006.70   33.10
   0  -1   6 1047.30   35.50
   1   0  -6   26.50    2.50
   0  -1  -6   23.20    2.90
  -1   1  -6   29.40    2.50
  -1   1  -6   24.10    2.70
   0  -1  -6   23.60    2.40
   1   0  -6   25.30    2.80
   1   0  -6   25.10    2.10
  -1   0   6   23.60    2.90
   1  -1   6   27.80    3.50
   0   1   6   31.00    3.80
   2  -1  -6 4104.19  123.69
  -1  -1  -6 4280.07  126.39
   2  -1  -6 4195.58  129.29
  -1   2  -6 3994.10  124.79
  -1   2  -6 4262.97  123.69
  -1  -1  -6 4200.68  129.99
   2  -1  -6 4265.87  126.19
   1  -2   6 4227.78  127.89
  -2   1   6 4032.40  125.39
   1   1   6 4446.06  128.59
   1  -2   6 4078.19  127.59
   3  -2  -6  406.46   14.80
  -2  -1  -6  413.06   16.90
   3  -2  -6  398.56   14.70
  -1   3  -6  383.86   14.80
  -2  -1  -6  390.36   14.80
   1  -3   6  396.26   17.70
   1  -3   6  390.96   14.60
   2   1   6  428.96   18.50
   0   2  -6  500.75   18.90
   2  -2  -6  507.35   19.80
   2  -2  -6  505.25   18.40
   0   2  -6  540.15   18.40
  -2   0  -6  533.05   18.30
  -2   0  -6  548.85   20.30
   2   0   6  572.64   22.00
  -2   2   6  550.84   20.60
   0  -2   6  570.94   18.70
   0  -2   6  508.15   20.50
  -2   1  -6  303.27   12.80
   1  -2  -6  291.47   11.70
   1   1  -6  325.47   11.80
   1  -2  -6  315.27   13.10
   1   1  -6  316.17   12.90
  -2   1  -6  316.77   11.50
  -1  -1   6  315.17   11.80
   2  -1   6  302.17   14.40
  -1  -1   6  280.87   12.70
  -1   2   6  316.57   14.30
   0  -2  -6  467.45   16.80
   2   0  -6  480.25   16.60
   2   0  -6  443.26   17.90
  -2   2  -6  414.76   16.90
   0  -2  -6  503.55   18.40
  -2   0   6  459.55   16.60
   2  -2   6  465.35   19.60
   0   2   6  504.85   20.20
   2  -2   6  468.75   16.00
  -1  -2  -6  468.35   17.20
  -1  -2  -6  486.25   19.00
  -2   3  -6  448.06   16.60
   3  -1  -6  473.75   17.20
   2  -3   6  489.05   20.70
   2  -3   6  451.35   16.40
  -3   1   6  494.95   17.20
  -3   1   6  496.45   19.10
   1   2   6  478.05   20.70
   4  -2  -6  395.16   15.80
  -2  -2  -6  384.16   15.50
  -2   4  -6  391.26   15.60
  -2  -2  -6  415.56   17.70
  -4   2   6  409.76   17.70
   2   2   6  423.96   19.40
  -4   2   6  419.86   15.30
   2  -4   6  410.06   14.90
   2  -4   6  419.56   19.30
  -2   5  -6   88.69    6.20
  -3  -2  -6   77.69    5.40
  -3  -2  -6   75.69    6.80
   5  -3  -6   73.19    5.70
  -5   3   6   77.79    6.60
   3   2   6   83.69    7.80
   2  -5   6   76.79    7.70
  -1   4  -6   91.49    5.90
  -3  -1  -6   86.39    6.70
   4  -3  -6   81.39    5.40
  -3  -1  -6   85.09    5.30
   3   1   6   84.59    7.30
  -4   3   6   88.89    6.60
   1  -4   6   81.09    7.10
   1  -4   6   88.29    5.50
  -3   0  -6  139.49    8.50
   0   3  -6  137.69    7.40
   3  -3  -6  150.28    8.40
   3  -3  -6  149.19    7.10
  -3   0  -6  147.59    6.90
   3  -3  -6  142.89    6.90
  -3   3   6  138.99    8.40
   0  -3   6  153.88    7.50
   0  -3   6  141.09    8.80
   3   0   6  154.18    9.80
   1   2  -6  129.29    6.70
  -3   1  -6  133.09    7.60
  -3   1  -6  125.19    5.90
   2  -3  -6  115.99    7.10
   2  -3  -6  127.79    6.50
  -1  -2   6  128.09    7.00
  -1  -2   6  121.29    6.50
  -2   3   6  132.29    8.40
  -1  -2   6  119.49    7.30
   3  -1   6  127.79    8.60
   1  -3  -6  242.38   10.40
  -3   2  -6  235.48   10.90
   2   1  -6  252.87   10.60
   1  -3  -6  252.37   11.50
   3  -2   6  240.18   12.90
  -1   3   6  241.58   13.00
  -2  -1   6  250.07   10.40
  -2  -1   6  255.27   11.60
   0  -3  -6    9.20    2.30
   0  -3  -6   10.90    2.00
   3   0  -6    9.10    2.10
  -3   0   6    8.60    2.30
  -3   0   6    8.60    1.60
   3  -3   6    7.10    2.70
   0   3   6    6.20    2.50
   4  -1  -6   12.70    2.60
  -1  -3  -6   12.00    2.30
  -1  -3  -6   13.30    2.70
  -3   4  -6    6.80    2.20
  -4   1   6   12.80    2.00
   1   3   6   11.10    3.50
   3  -4   6   11.10    3.40
  -4   1   6   16.60    2.90
   5  -2  -6   54.59    4.90
  -2  -3  -6   54.49    5.60
  -2  -3  -6   51.99    4.60
   2   3   6   54.99    6.40
   3  -5   6   56.09    6.70
  -5   2   6   56.19    5.80
  -3  -3  -6  304.97   10.30
  -3  -3  -6  293.97   12.40
   6  -3  -6  270.57    9.90
  -3  -3  -6  269.07   10.70
   6  -3  -6  250.37   11.90
  -3  -3  -6  263.47    9.10
   6  -3  -6  262.07    9.30
  -3  -3  -6  278.07   12.60
  -3   6  -6  250.97    9.30
   6  -3  -6  266.27   10.60
  -3  -3  -6  271.37   10.50
   6  -3  -6  263.07    9.30
   3  -6   6  252.17   10.20
   3  -6   6  261.37   10.60
   3  -6   6  262.67    9.40
  -3   7  -6  334.87   11.50
  -4  -3  -6  329.37   14.70
  -4  -3  -6  351.96   11.20
   7  -4  -6  344.07   11.50
  -4  -3  -6  330.67   14.90
   7  -4  -6  345.47   11.50
  -4  -3  -6  331.37   12.90
   7  -4  -6  332.97   12.90
  -4  -3  -6  323.77   12.50
   7  -4  -6  350.16   12.20
   3  -7   6  315.27   12.40
   3  -7   6  348.97   11.60
   4   3   6  318.57   11.30
   3  -7   6  339.17   13.00
  -4  -2  -6   32.50    2.10
  -4  -2  -6   35.40    3.10
   6  -4  -6   31.80    2.20
  -4  -2  -6   30.90    2.90
  -4  -2  -6   33.50    3.70
   6  -4  -6   32.00    2.50
   6  -4  -6   34.60    2.90
  -2   6  -6   31.30    2.20
   6  -4  -6   33.90    2.30
   2  -6   6   41.30    2.70
   2  -6   6   33.80    2.30
   2  -6   6   32.60    2.90
   4   2   6   30.70    2.20
  -4  -1  -6   84.29    7.30
  -1   5  -6   82.29    6.20
   5  -4  -6   86.59    6.10
   1  -5   6   81.09    5.50
   4   1   6   80.69    7.70
  -5   4   6   76.39    6.60
   1  -5   6   72.69    7.40
  -4   0  -6  127.99    9.00
   0   4  -6  133.49    8.00
  -4   4   6  153.68    9.00
   0  -4   6  123.89    9.00
   0  -4   6  161.68    8.10
   4   0   6  157.98   10.50
   3  -4  -6  248.68   10.40
   1   3  -6  246.88   11.20
   3  -4  -6  239.98   11.60
  -4   1  -6  229.28   12.10
   4  -1   6  233.38   13.20
  -1  -3   6  256.97   11.00
  -3   4   6  230.78   12.70
  -4   2  -6   79.39    5.90
   2  -4  -6   80.99    5.80
   2   2  -6   79.69    5.60
   2  -4  -6   83.89    5.40
   4  -2   6   85.99    7.30
  -2   4   6   75.89    7.00
  -2  -2   6   81.59    5.80
  -2  -2   6   83.39    5.50
   1  -4  -6  945.71   31.00
   3   1  -6  892.61   31.30
   1  -4  -6  947.81   32.10
  -1   4   6  908.31   35.10
   4  -3   6  883.91   34.60
  -3  -1   6  892.21   32.40
  -3  -1   6  903.71   30.60
   0  -4  -6  191.08    9.60
   0  -4  -6  195.78   10.40
   4   0  -6  199.08   10.10
  -4   0   6  202.48    9.40
   0   4   6  186.18   12.50
  -4   0   6  198.78   11.20
   4  -4   6  174.78   12.00
   5  -1  -6    3.20    1.80
  -1  -4  -6    2.40    1.70
  -1  -4  -6    2.40    1.50
   4  -5   6    3.20    2.40
  -5   1   6   -0.40    1.10
  -5   1   6    1.60    1.90
   1   4   6    2.70    2.10
   6  -2  -6  206.58    7.60
  -2  -4  -6  212.98    7.40
  -2  -4  -6  223.88   11.20
   6  -2  -6  212.28    9.00
  -2  -4  -6  219.18   10.60
   6  -2  -6  213.58    7.80
  -2  -4  -6  224.08    8.70
  -2  -4  -6  209.38    8.70
   6  -2  -6  212.58    8.20
   6  -2  -6  207.18   10.70
  -2  -4  -6  204.38    7.60
   4  -6   6  202.08    7.60
   4  -6   6  198.38    7.10
   4  -6   6  215.08    9.00
   4  -6   6  212.48    8.80
  -3  -4  -6   18.60    3.20
   7  -3  -6   18.20    2.20
   7  -3  -6   19.00    3.20
   7  -3  -6   17.70    4.90
   7  -3  -6   17.60    1.80
  -3  -4  -6   17.20    3.20
   7  -3  -6   17.30    1.90
  -4   7  -6   16.10    1.80
  -3  -4  -6   13.10    1.60
   4  -7   6   13.50    1.80
   4  -7   6   14.70    2.20
   4  -7   6   16.30    2.30
   4  -7   6   12.40    2.00
   8  -4  -6   73.99    4.40
  -4  -4  -6   54.69    4.00
   8  -4  -6   68.09    3.30
  -4  -4  -6   64.69    3.20
   8  -4  -6   68.99    3.50
   8  -4  -6   76.09    5.20
  -4   8  -6   68.89    3.50
  -4  -4  -6   68.19    5.80
   8  -4  -6   70.49    3.70
  -4  -4  -6   51.89    5.80
   4  -8   6   64.99    3.50
   4   4   6   64.79    3.50
   4  -8   6   68.49    4.60
   4  -8   6   66.49    4.30
  -4   9  -6   89.59    4.00
  -5  -4  -6   92.99    6.40
   9  -5  -6   93.59    4.20
   9  -5  -6   91.89    3.90
   9  -5  -6   94.29    4.20
   9  -5  -6  100.89    5.00
   9  -5  -6   91.89    5.10
   4  -9   6   94.39    5.20
   4  -9   6   91.99    4.90
   5   4   6   91.39    3.90
   5   4   6   91.29    4.10
   8  -5  -6  228.18    9.70
  -5  -3  -6  223.38    9.60
  -3   8  -6  229.08    8.20
   8  -5  -6  226.08    8.00
   8  -5  -6  223.18    8.20
  -5  -3  -6  218.58   11.30
   8  -5  -6  225.58    8.30
   8  -5  -6  228.48    9.00
   3  -8   6  226.98    9.20
   3  -8   6  237.48    9.90
   5   3   6  239.68    8.10
   5   3   6  228.98    8.30
  -5  -2  -6  218.38    9.70
   7  -5  -6  226.68    8.20
   7  -5  -6  226.08    8.80
   7  -5  -6  231.58    8.30
  -2   7  -6  221.68    8.10
  -5  -2  -6  237.28   11.20
   5   2   6  227.58    7.90
   2  -7   6  211.78    9.40
   2  -7   6  223.48    8.90
   5   2   6  220.58    8.10
  -1   6  -6  472.65   15.50
   6  -5  -6  486.95   15.40
  -1   6  -6  485.95   15.70
  -5  -1  -6  495.45   18.50
  -5  -1  -6  481.55   17.40
   6  -5  -6  479.85   15.50
   6  -5  -6  478.75   16.00
  -5  -1  -6  459.25   16.50
   1  -6   6  473.35   16.90
   1  -6   6  494.75   19.00
   5   1   6  468.45   15.20
   5   1   6  478.45   15.50
   0   5  -6  674.33   21.00
  -5   0  -6  653.23   22.50
  -5   0  -6  675.43   28.00
  -5   0  -6  679.33   22.10
  -5   0  -6  700.13   24.10
  -5   0  -6  671.83   21.50
   0   5  -6  632.54   20.80
   0   5  -6  691.83   26.00
   5   0   6  642.04   20.70
   5   0   6  648.04   20.50
   0  -5   6  643.64   21.90
   0  -5   6  704.93   24.70
   1   4  -6  279.17   13.30
  -5   1  -6  278.67   14.60
  -1  -4   6  292.97   12.90
   3  -5  -6  456.95   16.90
   2   3  -6  445.36   18.00
  -5   2  -6  409.16   18.50
  -2  -3   6  423.56   17.10
   5  -2   6  419.96   20.10
  -3   5   6  436.06   20.70
   2  -5  -6  929.21   30.70
   3   2  -6  893.41   31.60
  -3  -2   6  817.32   31.70
  -3  -2   6  891.31   30.50
   5  -3   6  905.11   34.80
  -2   5   6  872.51   35.30
   4   1  -6  101.79    7.20
   1  -5  -6  115.29    7.10
  -1   5   6  107.99    9.60
  -4  -1   6  101.79    6.60
   5  -4   6   97.99    8.80
  -4  -1   6  103.59    8.00
   5   0  -6    5.00    1.10
   5   0  -6    2.70    0.80
   0  -5  -6    2.60    0.90
   0  -5  -6    6.30    1.50
   0  -5  -6    2.70    0.80
   5   0  -6    3.50    2.10
   5   0  -6    0.20    1.30
   0  -5  -6    2.50    1.50
   5  -5   6    2.30    0.80
   5  -5   6    2.00    0.70
  -5   0   6    2.80    1.70
   5  -5   6    2.40    2.20
   0   5   6    4.00    3.10
  -5   0   6    2.70    2.00
   5  -5   6    2.70    1.10
   6  -1  -6   56.19    3.00
  -1  -5  -6   60.39    5.50
  -1  -5  -6   60.69    4.00
  -1  -5  -6   58.89    2.90
  -1  -5  -6   54.39    3.10
  -1  -5  -6   58.29    5.00
   6  -1  -6   55.89    3.20
   6  -1  -6   51.39    5.50
   6  -1  -6   58.79    3.40
   6  -1  -6   58.69    4.30
   5  -6   6   54.79    2.70
   5  -6   6   55.89    3.80
   5  -6   6   55.79    3.90
   5  -6   6   57.69    3.10
   7  -2  -6   75.79    3.70
   7  -2  -6   75.19    6.60
  -2  -5  -6   68.49    5.80
  -2  -5  -6   75.99    6.40
  -2  -5  -6   75.09    4.60
   7  -2  -6   79.19    4.30
   7  -2  -6   82.39    5.30
   7  -2  -6   72.39    4.90
  -2  -5  -6   74.39    3.80
   7  -2  -6   76.59    3.90
  -2  -5  -6   70.09    3.50
   5  -7   6   77.19    4.80
   5  -7   6   74.39    3.80
   5  -7   6   72.39    3.30
   5  -7   6   74.79    4.70
   8  -3  -6  148.19    6.00
   8  -3  -6  144.49    5.60
   8  -3  -6  147.69    7.50
  -3  -5  -6  143.79    5.60
  -5   8  -6  148.99    6.00
   8  -3  -6  147.39    5.90
  -3  -5  -6  149.29    6.90
  -3  -5  -6  141.09    8.60
   8  -3  -6  145.79    6.50
   5  -8   6  146.89    7.10
   3   5   6  142.99    5.90
   5  -8   6  147.29    5.40
   5  -8   6  151.68    7.10
   5  -8   6  147.19    5.90
   9  -4  -6   70.29    4.20
   9  -4  -6   57.89    3.20
   9  -4  -6   56.49    2.90
   9  -4  -6   59.69    4.30
   9  -4  -6   63.39    3.20
  -5   9  -6   58.29    3.20
  -4  -5  -6   56.99    5.10
   5  -9   6   58.49    3.90
   4   5   6   61.59    3.20
   5  -9   6   64.59    4.10
  -5  10  -6   72.99    3.20
  10  -5  -6   66.69    3.10
  -5  10  -6   70.09    3.00
  10  -5  -6   70.19    3.50
  -5  -5  -6   66.29    4.60
  10  -5  -6   68.79    3.10
  10  -5  -6   77.89    3.80
   5   5   6   71.69    2.80
   5 -10   6   69.19    3.80
   5 -10   6   71.59    3.70
   5   5   6   74.29    3.10
  10  -6  -6   22.30    2.10
  10  -6  -6   14.20    1.50
  -4  10  -6   17.00    1.50
  10  -6  -6   12.90    1.50
  -6  -4  -6   13.90    2.40
   6   4   6   16.10    1.20
   6   4   6   14.80    1.50
   4 -10   6   15.80    2.00
   4 -10   6   16.80    1.80
  -3   9  -6   62.99    3.30
   9  -6  -6   61.19    3.20
   9  -6  -6   69.39    4.00
   9  -6  -6   60.39    2.90
  -6  -3  -6   57.79    3.80
  -3   9  -6   56.79    2.90
  -6  -3  -6   56.49    4.90
   9  -6  -6   58.49    3.20
   3  -9   6   62.99    4.10
   6   3   6   64.89    3.20
   6   3   6   62.49    2.90
   3  -9   6   59.99    3.60
  -6  -2  -6   76.99    4.90
   8  -6  -6   78.09    3.80
   8  -6  -6   75.09    4.40
   8  -6  -6   79.69    3.60
  -2   8  -6   83.69    4.00
  -6  -2  -6   73.79    5.90
   8  -6  -6   76.99    3.80
  -2   8  -6   77.29    3.60
   2  -8   6   77.09    4.80
   6   2   6   80.09    3.90
   6   2   6   81.69    3.60
   7  -6  -6  309.87   10.70
  -1   7  -6  303.57   10.60
  -6  -1  -6  336.67   13.50
  -1   7  -6  298.67   10.80
  -6  -1  -6  306.57   12.40
   7  -6  -6  315.67   10.70
   6   1   6  307.67   10.40
   6   1   6  308.27   10.70
   1  -7   6  306.97   12.10
   0   6  -6  258.67    9.30
  -6   0  -6  263.27    9.80
   0   6  -6  244.98    9.00
   6  -6  -6  256.57    9.00
  -6   0  -6  288.67   11.40
   6  -6  -6  254.07    9.10
  -6   0  -6  244.48   10.70
   6   0   6  266.57    8.90
   0  -6   6  268.87   10.30
   6   0   6  249.97    9.10
   1   5  -6  674.83   21.30
   1   5  -6  682.23   21.60
  -6   1  -6  678.83   22.20
  -6   1  -6  667.23   23.10
  -1  -5   6  719.33   25.90
   6  -1   6  666.63   21.30
   6  -1   6  692.03   21.10
  -6   2  -6  164.08    7.00
   2   4  -6  161.58    6.40
   2   4  -6  156.28    6.20
  -6   2  -6  186.58    7.40
  -2  -4   6  162.18    9.20
   6  -2   6  160.58    7.10
   6  -2   6  162.08    6.20
   6  -2   6  164.48    6.00
   3   3  -6  343.67   11.50
   3  -6  -6  363.16   14.70
   3   3  -6  335.27   11.30
  -6   3  -6  326.17   12.00
   3  -6  -6  333.77   10.90
   3  -6  -6  318.97   12.50
   3  -6  -6  319.87   12.20
   3   3  -6  357.76   14.20
  -6   3  -6  368.86   12.40
  -3  -3   6  354.76   15.00
   6  -3   6  334.67   11.20
   6  -3   6  321.97   12.20
   6  -3   6  327.47   11.00
   4   2  -6   47.80    2.60
   4   2  -6   52.09    4.50
   2  -6  -6   48.00    2.70
   4   2  -6   53.69    5.10
   2  -6  -6   46.30    3.50
   2  -6  -6   48.90    4.70
   2  -6  -6   46.70    3.40
  -6   4  -6   41.70    3.00
   2  -6  -6   46.60    2.50
   4   2  -6   48.20    2.90
   6  -4   6   44.60    2.50
   6  -4   6   46.20    3.40
  -4  -2   6   51.09    4.80
   6  -4   6   46.60    2.50
   1  -6  -6    6.50    2.30
  -6   5  -6    8.60    1.50
   1  -6  -6   10.10    1.90
   1  -6  -6    8.00    1.30
   5   1  -6    9.80    1.50
   1  -6  -6    7.80    1.30
   5   1  -6    6.80    1.90
   5   1  -6    8.80    1.30
   1  -6  -6    9.10    1.90
   6  -5   6    8.30    1.20
   6  -5   6    8.70    1.80
  -5  -1   6    7.70    2.30
   6  -5   6    7.40    1.30
   0  -6  -6   41.60    3.40
   6   0  -6   29.50    4.60
   6   0  -6   37.40    2.40
   0  -6  -6   37.80    3.40
   6   0  -6   39.00    2.60
   6   0  -6   31.60    3.50
   0  -6  -6   39.90    4.70
   6   0  -6   43.30    2.90
   0  -6  -6   40.20    2.40
   0  -6  -6   38.90    2.60
   6  -6   6   40.80    2.60
   6  -6   6   38.20    3.20
   6  -6   6   40.10    2.30
  -1  -6  -6   69.89    3.60
  -1  -6  -6   78.69    4.60
  -1  -6  -6   66.49    6.10
   7  -1  -6   68.99    3.50
  -1  -6  -6   71.39    4.50
  -1  -6  -6   69.59    5.50
   7  -1  -6   71.09    3.70
   7  -1  -6   64.89    5.10
   7  -1  -6   68.79    3.90
   7  -1  -6   65.19    5.80
   7  -1  -6   70.79    3.40
  -1  -6  -6   71.99    3.50
   6  -7   6   71.89    4.60
   6  -7   6   68.09    3.20
   8  -2  -6  164.08    6.30
   8  -2  -6  155.68    7.80
   8  -2  -6  148.59    6.00
  -2  -6  -6  166.18    6.90
  -6   8  -6  150.58    6.10
  -2  -6  -6  152.68    8.60
   8  -2  -6  155.68    5.80
  -2  -6  -6  156.78    7.10
   8  -2  -6  159.78    6.80
  -2  -6  -6  150.98    5.80
   6  -8   6  138.19    5.90
   6  -8   6  147.69    7.10
   6  -8   6  144.49    6.80
   6  -8   6  154.18    5.70
   9  -3  -6  209.08    8.00
  -3  -6  -6  204.18    7.10
  -3  -6  -6  198.58    9.60
   9  -3  -6  199.08    7.10
   9  -3  -6  196.68    7.30
  -3  -6  -6  190.58    8.00
   9  -3  -6  209.98    8.70
  -6   9  -6  213.68    7.50
   9  -3  -6  217.28    7.60
   6  -9   6  199.08    8.10
   3   6   6  210.48    7.40
   6  -9   6  209.48    8.50
   6  -9   6  199.38    6.90
   6  -9   6  204.58    7.30
  10  -4  -6   90.79    3.70
  10  -4  -6   89.79    3.70
  10  -4  -6   95.19    4.10
  10  -4  -6   95.79    4.30
  -6  10  -6   95.29    3.70
  -4  -6  -6   86.69    5.10
   4   6   6   90.69    3.40
   6 -10   6   91.49    4.40
   4   6   6   92.19    3.70
   6 -10   6   85.99    4.10
  10  -7  -6    0.50    0.80
  10  -7  -6    2.00    0.80
  -3  10  -6    1.70    0.70
  -7  -3  -6    1.00    0.80
   3 -10   6    0.90    0.70
   7   3   6    1.10    0.60
   9  -7  -6   64.89    2.90
   9  -7  -6   60.69    3.10
   9  -7  -6   60.49    3.10
  -2   9  -6   65.79    3.20
  -7  -2  -6   61.29    4.80
  -7  -2  -6   63.59    4.00
   7   2   6   64.99    3.10
   7   2   6   66.79    2.80
   2  -9   6   64.69    4.00
  -7  -1  -6   47.60    3.70
  -1   8  -6   50.69    3.00
   8  -7  -6   44.20    2.80
   8  -7  -6   42.80    2.70
   8  -7  -6   42.80    2.50
   7   1   6   49.10    2.80
   1  -8   6   44.50    3.60
   7   1   6   47.40    2.50
   7  -7  -6   85.39    4.10
  -7   0  -6   91.79    4.70
   7  -7  -6   84.99    4.00
  -7   0  -6   91.39    5.50
   0   7  -6   87.39    4.30
   0   7  -6   91.69    4.00
   7   0   6   94.09    4.00
   7   0   6   94.39    4.30
   0  -7   6  109.99    5.10
  -7   1  -6  336.77   13.60
   1   6  -6  355.06   12.10
  -7   1  -6  365.66   12.70
   1   6  -6  338.07   11.70
   7  -1   6  367.66   11.70
  -1  -6   6  349.17   15.80
   7  -1   6  354.16   11.90
   2   5  -6   57.39    3.10
   2   5  -6   59.59    3.40
  -7   2  -6   59.49    3.80
  -2  -5   6   64.79    5.70
   7  -2   6   63.99    3.10
   7  -2   6   63.39    3.30
   4  -7  -6   24.70    1.90
   4  -7  -6   27.60    2.80
  -7   3  -6   26.90    2.50
   3   4  -6   26.80    2.00
   4  -7  -6   26.60    2.60
   4  -7  -6   26.40    2.10
   3   4  -6   28.40    2.30
   7  -3   6   28.90    2.20
   7  -3   6   25.70    1.90
  -3  -4   6   27.20    3.90
  -3  -4   6   20.90    3.70
   4   3  -6   21.20    1.80
   3  -7  -6   22.40    2.00
  -7   4  -6   20.90    2.30
   3  -7  -6   20.20    2.70
   3  -7  -6   20.20    2.50
   3  -7  -6   21.20    1.80
   4   3  -6   20.70    2.00
  -4  -3   6   22.80    3.60
   7  -4   6   22.50    1.90
   7  -4   6   21.20    1.70
   7  -4   6   21.60    2.40
   2  -7  -6   14.20    1.70
   2  -7  -6   13.40    2.30
   5   2  -6   13.70    1.50
   5   2  -6   15.80    2.30
  -7   5  -6   13.30    1.90
   2  -7  -6   11.50    2.20
   2  -7  -6   14.50    1.90
   5   2  -6   13.30    1.70
   2  -7  -6   11.80    2.80
   7  -5   6   14.30    1.60
  -5  -2   6   13.80    3.10
   7  -5   6   12.90    1.50
   7  -5   6   14.70    1.60
   7  -5   6   13.70    2.10
   1  -7  -6  369.06   14.20
   1  -7  -6  372.76   12.30
  -7   6  -6  357.16   12.80
   6   1  -6  369.16   13.90
   1  -7  -6  362.56   13.80
   6   1  -6  384.76   12.60
   1  -7  -6  370.26   16.60
   6   1  -6  350.96   12.20
   1  -7  -6  370.96   12.10
   6   1  -6  367.86   12.10
   7  -6   6  369.76   12.10
   7  -6   6  370.96   12.30
   7  -6   6  359.96   12.10
   7  -6   6  383.36   13.60
   7   0  -6  389.66   12.90
   7   0  -6  375.46   12.60
   7   0  -6  374.06   13.10
   7   0  -6  391.56   12.60
   0  -7  -6  382.26   14.10
   0  -7  -6  393.26   12.50
   0  -7  -6  377.56   14.40
   7   0  -6  369.26   14.30
   0  -7  -6  386.36   12.70
   7  -7   6  386.26   12.40
   7  -7   6  374.06   13.90
   7  -7   6  388.66   12.80
  -1  -7  -6   13.60    1.80
  -1  -7  -6   15.20    2.40
   8  -1  -6   10.60    1.50
   8  -1  -6    8.60    1.90
  -1  -7  -6   13.40    2.20
  -1  -7  -6   11.50    1.90
   8  -1  -6   13.10    1.70
   8  -1  -6   10.50    1.50
   7  -8   6   10.10    2.00
   7  -8   6   10.20    1.50
   9  -2  -6   14.40    1.50
   9  -2  -6   15.70    1.50
  -7   9  -6   16.60    1.80
  -2  -7  -6   12.50    1.70
   9  -2  -6   10.00    2.40
   9  -2  -6   13.30    2.10
  -2  -7  -6   16.80    2.30
   9  -2  -6   13.40    1.70
   7  -9   6   15.30    2.20
   7  -9   6   15.30    1.40
   2   7   6   16.20    1.90
   7  -9   6   11.40    1.50
  10  -3  -6   43.00    2.20
  -7  10  -6   44.00    2.30
  10  -3  -6   41.20    2.50
  10  -3  -6   40.60    2.00
   3   7   6   43.00    2.20
   7 -10   6   43.80    1.90
 -10   3   6   42.00    3.20
   7 -10   6   41.40    2.70
  -2  10  -6  102.29    3.70
   2 -10   6   94.79    4.70
   8   2   6   96.99    3.60
  -8  -1  -6   25.20    2.40
   9  -8  -6   24.90    1.90
  -1   9  -6   27.90    1.90
   9  -8  -6   25.70    1.80
   8   1   6   27.20    1.90
   8   1   6   24.80    1.50
   1  -9   6   25.90    2.40
   8  -8  -6    5.80    1.20
   0   8  -6    6.60    1.30
  -8   0  -6    4.50    1.30
   8   0   6    5.00    0.90
   8   0   6    5.40    1.10
  -8   1  -6   57.29    3.50
   1   7  -6   57.49    3.20
  -8   1  -6   53.69    4.00
   8  -1   6   59.79    3.10
   8  -1   6   56.09    2.80
  -8   2  -6   40.20    3.50
   2   6  -6   46.70    3.00
  -8   2  -6   44.60    3.20
   8  -2   6   45.20    2.50
   8  -2   6   43.70    2.70
  -8   3  -6   18.10    2.20
   5  -8  -6   16.30    1.70
   5  -8  -6   18.20    2.40
   3   5  -6   17.30    2.00
   8  -3   6   18.10    1.60
  -3  -5   6    5.90    3.70
   8  -3   6   17.60    1.90
   4  -8  -6   10.50    2.00
   4  -8  -6   10.30    2.10
   4   4  -6   12.90    1.70
   4  -8  -6    9.60    1.70
   4  -8  -6   11.00    1.40
  -8   4  -6   12.10    1.90
  -4  -4   6    8.80    2.70
   8  -4   6   12.10    1.40
  -4  -4   6   11.80    3.00
   8  -4   6   13.10    1.60
   3  -8  -6   19.20    1.90
   5   3  -6   22.80    1.90
   3  -8  -6   21.70    2.20
   3  -8  -6   20.60    2.90
   5   3  -6   23.70    2.10
   3  -8  -6   20.90    2.70
  -8   5  -6   22.10    2.40
  -5  -3   6   21.90    3.80
   8  -5   6   23.30    2.50
   8  -5   6   23.70    1.90
   8  -5   6   23.30    2.00
   6   2  -6   92.49    4.30
   2  -8  -6   93.89    5.40
   6   2  -6   93.99    4.00
  -8   6  -6   91.29    4.60
   2  -8  -6   93.89    4.10
   6   2  -6   87.59    3.90
   2  -8  -6   93.79    4.30
   2  -8  -6   92.09    5.60
  -6  -2   6   92.89    7.00
   8  -6   6   89.39    4.90
   8  -6   6   90.99    3.90
   8  -6   6   89.99    4.10
   8  -6   6   86.09    4.00
   7   1  -6  498.95   15.90
   7   1  -6  476.85   15.40
   1  -8  -6  501.85   17.20
   1  -8  -6  482.45   15.70
   7   1  -6  491.45   17.10
   1  -8  -6  502.25   15.50
   1  -8  -6  482.55   17.40
  -7  -1   6  489.95   19.40
   8  -7   6  467.75   16.60
   8  -7   6  493.75   15.40
   8   0  -6    4.90    1.10
   0  -8  -6    5.60    1.20
   0  -8  -6    3.00    1.10
   8   0  -6    6.90    1.20
   8   0  -6    5.10    1.00
   0  -8  -6    5.70    1.20
   0  -8  -6    5.10    1.50
   8   0  -6    3.10    1.10
   8  -8   6    3.90    0.90
   8  -8   6    4.60    1.30
  -8   0   6    3.20    1.50
  -1  -8  -6    2.60    0.90
   9  -1  -6    2.90    0.70
  -1  -8  -6    3.00    1.10
   9  -1  -6    1.80    0.80
  -8   9  -6    2.50    0.90
   9  -1  -6    3.30    0.70
  -9   1   6    0.90    0.90
   8  -9   6    1.50    0.90
   8  -9   6    1.20    0.70
  10  -2  -6   30.40    1.70
  -8  10  -6   32.00    1.80
   8 -10   6   31.20    2.30
 -10   2   6   30.20    2.40
   2   8   6   30.30    1.70
  -9   0  -6   36.50    2.50
   0   9  -6   39.30    2.00
   9   0   6   39.60    2.00
  -9   1  -6   10.30    1.40
  -9   1  -6    7.60    1.80
   1   8  -6   10.30    1.40
   9  -1   6    8.30    1.30
   9  -1   6    9.70    1.00
  -9   2  -6    1.40    0.90
  -9   2  -6    1.90    0.90
   2   7  -6    1.00    0.90
   9  -2   6    1.90    0.70
   9  -2   6    2.00    0.80
  -9   3  -6    1.30    0.90
   6  -9  -6    0.60    0.80
   6  -9  -6    2.00    0.80
   3   6  -6    2.70    1.00
   9  -3   6    2.80    0.80
   5  -9  -6   20.20    1.70
  -9   4  -6   24.00    2.40
   4   5  -6   23.20    2.00
   5  -9  -6   20.50    2.60
   9  -4   6   24.10    1.80
   9  -4   6   21.80    1.90
   4  -9  -6   -1.00    0.90
  -9   5  -6    1.10    0.90
   5   4  -6    0.20    0.80
   4  -9  -6   -1.20    1.10
   4  -9  -6   -1.80    0.80
   4  -9  -6   -0.30    0.80
   5   4  -6    1.50    0.80
   9  -5   6    0.50    0.80
   9  -5   6    0.90    0.80
  -5  -4   6    0.30    0.90
   3  -9  -6   52.59    3.00
   3  -9  -6   45.80    3.70
  -9   6  -6   49.90    3.20
   3  -9  -6   45.60    3.60
   6   3  -6   52.29    2.90
   6   3  -6   51.19    2.60
   3  -9  -6   46.40    2.70
   9  -6   6   50.69    2.60
  -6  -3   6   49.30    4.50
   9  -6   6   53.89    2.70
   7   2  -6   33.40    2.30
   7   2  -6   32.30    1.90
   2  -9  -6   36.90    2.50
   2  -9  -6   28.90    3.00
   2  -9  -6   31.70    2.20
   2  -9  -6   28.40    3.10
   9  -7   6   34.10    2.00
   9  -7   6   33.90    2.10
  -7  -2   6   32.70    3.90
   1  -9  -6   32.80    2.80
   1  -9  -6   37.70    2.30
   8   1  -6   38.70    2.10
   1  -9  -6   34.40    2.90
   8   1  -6   33.30    2.20
   1  -9  -6   36.60    2.20
  -9   8  -6   35.60    2.20
   9  -8   6   34.10    2.40
   9  -8   6   35.20    1.90
   9  -8   6   35.60    2.10
  -8  -1   6   32.60    2.80
  -8  -1   6   34.50    3.60
   9   0  -6    8.80    1.10
   0  -9  -6   11.90    1.60
   0  -9  -6   12.60    1.60
   0  -9  -6   11.00    1.30
  -9   9  -6   10.00    1.20
   9  -9   6   12.20    2.00
  -9   0   6    8.00    2.10
   9  -9   6    9.30    1.10
  -9   0   6    8.50    1.70
   2   8  -6   13.70    1.20
  10  -2   6   12.60    1.20
   3   7  -6   18.30    1.50
 -10   3  -6   17.90    1.60
  10  -3   6   20.00    1.40
  10  -3   6   17.30    1.20
   6 -10  -6    7.90    1.30
 -10   4  -6    9.40    1.50
   4   6  -6   10.30    1.30
   6 -10  -6    8.20    1.10
  10  -4   6    8.30    1.10
  10  -4   6    8.50    1.00
   5 -10  -6   21.50    2.20
   5   5  -6   24.50    1.80
   5 -10  -6   22.40    1.90
 -10   5  -6   24.00    2.00
  10  -5   6   22.10    1.50
  10  -5   6   25.50    1.70
   6   4  -6    2.10    0.80
   4 -10  -6    0.30    1.00
   4 -10  -6    0.10    0.70
   4 -10  -6    2.70    0.90
 -10   6  -6    1.10    0.70
   4 -10  -6    0.50    0.70
  10  -6   6    1.80    0.60
  -6  -4   6    0.60    0.70
  10  -6   6    1.00    0.60
   7   3  -6   84.99    3.50
   3 -10  -6   91.19    3.50
   3 -10  -6   93.69    3.60
   3 -10  -6   85.59    4.30
   3 -10  -6   85.19    4.20
  10  -7   6   93.49    3.30
  -7  -3   6   87.29    5.00
  10  -7   6   90.59    3.40
   8   2  -6   23.50    1.40
   2 -10  -6   20.50    2.00
   2 -10  -6   25.30    1.50
   2 -10  -6   22.20    1.90
  -8  -2   6   22.40    2.50
  10  -8   6   23.10    1.30
   0   0  -7    0.40    0.80
   0   0  -7    2.00    1.20
   0   0   7   -0.10    1.20
   1  -1  -7  225.58    9.60
  -1   0  -7  214.48   10.70
   1  -1  -7  219.78   10.70
  -1   0  -7  224.68    9.50
   0   1  -7  227.58   10.50
   0  -1   7  241.28    9.60
  -1   1   7  221.08   11.40
   1   0   7  199.58   11.70
   0  -1   7  213.58   11.30
   1   0  -7  138.19    7.70
  -1   1  -7  128.59    7.40
   0  -1  -7  122.99    6.50
  -1   1  -7  136.79    6.60
   0  -1  -7  138.39    7.90
   0   1   7  136.79    8.90
   1  -1   7  135.59    8.80
  -1   0   7  128.49    7.80
   2  -1  -7  165.88    7.70
  -1  -1  -7  158.18    9.00
  -1  -1  -7  144.19    7.40
   2  -1  -7  145.99    8.60
  -1   2  -7  142.99    7.80
   1  -2   7  156.28    9.70
  -2   1   7  163.38    8.70
   1  -2   7  155.18    7.30
   1   1   7  162.78   10.30
   3  -2  -7 1940.11   63.19
  -2  -1  -7 2004.70   63.69
  -2  -1  -7 1903.21   60.79
   2   1   7 2008.00   65.99
   1  -3   7 1974.20   60.69
   1  -3   7 1939.11   64.89
   0   2  -7   60.79    4.10
   2  -2  -7   60.59    5.10
   0   2  -7   57.29    4.50
   2  -2  -7   61.79    4.30
  -2   0  -7   61.09    5.30
  -2   0  -7   61.39    4.20
   0  -2   7   62.09    4.30
   2   0   7   59.19    6.10
  -2   2   7   61.39    5.50
   0  -2   7   60.69    5.50
  -2   1  -7   14.00    2.00
  -2   1  -7   13.10    2.40
   1  -2  -7   13.10    2.00
   1  -2  -7   13.90    2.60
   1   1  -7   13.90    2.50
   1   1  -7   12.30    1.80
  -1  -1   7   12.50    1.90
   2  -1   7   15.10    3.20
  -1  -1   7   12.50    2.60
  -1   2   7   14.00    3.00
   0  -2  -7   89.89    5.50
   2   0  -7   84.39    6.20
  -2   2  -7   84.79    5.70
   0  -2  -7   97.09    6.70
   2   0  -7   88.89    5.20
   2  -2   7   84.29    7.20
  -2   0   7   89.29    5.30
   2  -2   7   84.59    4.90
   0   2   7   95.49    7.60
  -1  -2  -7   13.30    2.30
  -1  -2  -7   14.40    2.70
   3  -1  -7   12.50    2.10
   2  -3   7   16.10    2.30
   1   2   7    9.80    3.20
  -3   1   7   17.90    3.10
   2  -3   7   16.60    3.40
  -3   1   7   18.60    2.40
   4  -2  -7   54.79    4.40
  -2  -2  -7   48.80    5.30
  -2  -2  -7   44.60    4.10
  -4   2   7   54.19    5.50
   2   2   7   50.69    6.20
   2  -4   7   40.10    5.60
  -4   2   7   48.80    4.00
  -3  -2  -7  154.48    7.10
  -3  -2  -7  149.39    6.90
  -3  -2  -7  151.58    8.30
   5  -3  -7  152.98    6.30
  -3  -2  -7  164.08   10.70
  -3  -2  -7  153.58    5.60
   5  -3  -7  149.88    5.80
   5  -3  -7  152.08    6.90
  -2   5  -7  148.89    5.90
   2  -5   7  149.49    6.80
   2  -5   7  142.59   11.10
   3   2   7  155.48   11.60
  -5   3   7  155.18   10.30
  -1   4  -7  131.39    7.70
  -3  -1  -7  132.89    7.30
  -3  -1  -7  136.19    9.30
  -4   3   7  148.39    9.40
   1  -4   7  143.09   10.10
   3   1   7  137.19   10.30
   1  -4   7  151.28    7.80
   3  -3  -7  120.69    7.90
  -3   0  -7  129.19    6.60
  -3   0  -7  115.29    8.00
   3  -3  -7  120.19    6.70
   0   3  -7  118.59    6.80
   0  -3   7  127.09    8.70
   3   0   7  129.99    9.60
   0  -3   7  127.19    7.10
   1   2  -7   35.20    3.40
  -3   1  -7   30.90    3.20
  -3   1  -7   31.30    3.70
   2  -3  -7   38.40    3.50
   2  -3  -7   39.50    4.20
  -2   3   7   36.50    4.70
  -1  -2   7   43.20    4.10
   3  -1   7   33.30    4.80
  -1  -2   7   35.70    3.40
   1  -3  -7  192.28   10.20
   1  -3  -7  198.28    9.20
   2   1  -7  189.78    9.00
  -3   2  -7  185.28    9.70
  -1   3   7  178.98   11.50
  -2  -1   7  179.38    9.90
  -2  -1   7  190.48    9.00
   3  -2   7  170.68   11.30
   0  -3  -7  798.42   27.00
   3   0  -7  742.93   26.60
   0  -3  -7  789.72   28.60
  -3   0   7  732.33   26.30
   3  -3   7  771.02   31.00
   0   3   7  771.82   31.10
  -3   0   7  765.72   28.80
   4  -1  -7  414.46   17.20
  -1  -3  -7  446.56   19.20
  -1  -3  -7  433.06   17.30
   1   3   7  438.66   21.40
  -4   1   7  447.76   19.50
  -4   1   7  448.66   16.90
   3  -4   7  418.26   21.00
  -2  -3  -7   58.49    5.10
   5  -2  -7   61.59    5.30
  -3   5  -7   56.29    3.10
  -2  -3  -7   60.89    3.80
  -2  -3  -7   58.89    2.90
   5  -2  -7   59.59    3.00
  -2  -3  -7   63.29    6.30
   5  -2  -7   67.09    4.90
   5  -2  -7   65.59    3.90
   5  -2  -7   60.29    3.40
   2   3   7   58.99    7.20
   3  -5   7   55.59    3.80
   3  -5   7   61.69    3.70
   3  -5   7   59.89    7.30
  -5   2   7   63.89    6.50
  -3  -3  -7   11.40    2.00
   6  -3  -7   13.80    2.20
  -3  -3  -7   13.20    2.70
   6  -3  -7   11.50    1.50
   6  -3  -7   13.70    1.80
  -3  -3  -7   12.60    2.10
   6  -3  -7   12.60    1.60
  -3  -3  -7    9.90    1.40
  -3   6  -7   11.30    1.50
   3  -6   7   10.90    2.00
   3   3   7    7.80    1.40
   3  -6   7   13.80    1.50
   3  -6   7   10.80    1.90
  -4  -3  -7   58.09    4.10
   7  -4  -7   57.69    3.20
   7  -4  -7   60.79    3.30
  -4  -3  -7   51.99    4.00
   7  -4  -7   58.69    3.80
  -4  -3  -7   59.59    3.10
  -3   7  -7   57.39    3.20
  -4  -3  -7   55.69    5.30
   7  -4  -7   56.79    4.50
   3  -7   7   59.09    4.30
   4   3   7   59.29    3.20
   3  -7   7   57.49    3.80
   6  -4  -7  232.08    8.90
  -2   6  -7  229.58    8.40
  -4  -2  -7  231.28    9.90
  -4  -2  -7  254.77   11.30
   6  -4  -7  225.68    9.50
  -4  -2  -7  225.58    9.50
   6  -4  -7  233.48    8.30
   6  -4  -7  237.98    8.30
   4   2   7  224.48    8.20
   2  -6   7  228.68    9.00
   2  -6   7  222.48    9.70
  -1   5  -7  244.38    8.80
   5  -4  -7  246.98    8.60
  -1   5  -7  249.88   12.50
   5  -4  -7  249.88    9.20
  -4  -1  -7  252.77   10.40
   5  -4  -7  249.48    9.90
  -4  -1  -7  290.17   11.30
  -4  -1  -7  246.48    9.90
  -1   5  -7  243.38    8.80
   1  -5   7  264.67   11.70
   1  -5   7  251.27    9.90
   4   1   7  242.88   15.20
   4   1   7  236.48    8.60
  -5   4   7  255.57   13.80
   1  -5   7  237.98   14.70
   0   4  -7  220.98   11.20
  -4   0  -7  219.48   12.70
   4  -4  -7  231.68   10.40
   0  -4   7  242.78   11.10
  -4   4   7  233.28   12.40
   4   0   7  228.88   14.10
   3  -4  -7  100.89    7.20
   1   3  -7  106.89    6.70
  -4   1  -7   92.69    7.30
   3  -4  -7  103.99    6.20
   4  -1   7   93.69    8.40
  -3   4   7   69.09    8.00
  -1  -3   7  104.19    6.60
  -4   2  -7   48.50    4.80
   2  -4  -7   48.20    4.80
   2  -4  -7   56.49    4.50
   2   2  -7   52.59    4.60
  -2  -2   7   47.50    4.40
  -2   4   7   45.60    5.80
   4  -2   7   54.79    6.30
  -2  -2   7   49.00    4.80
   1  -4  -7  227.28   11.90
   1  -4  -7  231.48   11.10
   3   1  -7  240.18   11.40
  -3  -1   7  232.08   10.90
   4  -3   7  241.58   14.30
  -3  -1   7  245.08   12.60
  -1   4   7  215.48   13.90
   4   0  -7   12.30    2.90
   0  -4  -7    9.60    2.40
   0  -4  -7    9.60    2.80
   0   4   7   14.10    4.20
   4  -4   7   10.70    3.50
  -4   0   7   14.00    3.40
  -4   0   7    8.80    2.30
   5  -1  -7   51.39    3.40
  -1  -4  -7   54.09    3.20
   5  -1  -7   41.20    2.50
   5  -1  -7   43.60    2.90
   5  -1  -7   45.00    4.80
   5  -1  -7   47.60    4.70
  -1  -4  -7   41.50    4.50
   5  -1  -7   40.50    2.50
  -1  -4  -7   42.70    3.20
  -1  -4  -7   44.10    2.50
  -1  -4  -7   41.50    5.20
  -1  -4  -7   54.49    4.20
   4  -5   7   41.50    3.30
   4  -5   7   41.60    3.20
   4  -5   7   45.40    2.40
  -5   1   7   40.10    4.20
  -2  -4  -7   74.99    6.10
  -2  -4  -7   76.89    3.60
  -2  -4  -7   78.09    4.60
   6  -2  -7   74.59    3.70
  -2  -4  -7   77.59    6.20
   6  -2  -7   75.39    3.80
   6  -2  -7   75.29    4.10
   6  -2  -7   73.99    6.40
  -4   6  -7   80.39    3.80
   6  -2  -7   77.89    4.80
   4  -6   7   73.19    4.50
   4  -6   7   71.29    4.60
   7  -3  -7  760.02   22.90
   7  -3  -7  722.63   24.60
  -3  -4  -7  715.13   24.00
  -3  -4  -7  761.02   27.10
  -3  -4  -7  710.73   27.10
  -3  -4  -7  726.73   22.50
   7  -3  -7  729.73   26.30
  -4   7  -7  710.73   22.90
  -3  -4  -7  717.53   24.20
   7  -3  -7  759.22   23.70
   7  -3  -7  744.23   22.90
   3   4   7  686.83   22.60
   4  -7   7  717.03   22.80
   4  -7   7  733.93   24.10
   4  -7   7  722.53   24.50
   8  -4  -7   10.80    1.60
  -4  -4  -7   11.90    3.20
   8  -4  -7   12.90    1.80
   8  -4  -7   13.00    2.50
  -4   8  -7   13.70    1.80
   4  -8   7   11.80    2.00
   4  -8   7   11.60    2.20
   4   4   7   12.30    1.70
   9  -5  -7   32.80    2.30
  -4   9  -7   34.50    2.40
   9  -5  -7   29.30    2.20
   9  -5  -7   39.40    3.30
   9  -5  -7   35.50    3.30
  -4   9  -7   33.20    2.20
  -5  -4  -7   33.30    3.80
   5   4   7   35.40    2.20
   5   4   7   34.70    2.30
   4  -9   7   32.90    2.70
   4  -9   7   31.70    2.90
  -5  -3  -7   31.30    3.00
  -5  -3  -7   28.70    3.80
   8  -5  -7   38.70    4.30
  -3   8  -7   32.00    2.30
   8  -5  -7   29.60    3.00
   8  -5  -7   29.90    2.20
   8  -5  -7   31.70    2.40
  -3   8  -7   32.30    2.50
   5   3   7   32.50    2.30
   3  -8   7   32.90    3.30
   5   3   7   33.60    2.20
   3  -8   7   29.90    2.80
   7  -5  -7   79.89    4.50
  -5  -2  -7   86.59    6.20
  -5  -2  -7   83.89    5.20
   7  -5  -7   82.19    3.90
  -2   7  -7   82.49    4.00
  -5  -2  -7   80.69    4.80
  -2   7  -7   85.19    4.00
   7  -5  -7   79.59    5.40
   7  -5  -7   82.09    3.90
   5   2   7   82.79    3.90
   2  -7   7   82.49    5.00
   5   2   7   90.29    3.90
  -1   6  -7  105.69    4.70
   6  -5  -7  108.19    5.10
  -5  -1  -7  110.39    5.80
  -5  -1  -7  109.69    6.10
  -1   6  -7  107.79    4.90
   6  -5  -7  106.19    4.60
   1  -6   7  109.49    7.30
   1  -6   7  122.19    5.80
   5   1   7  104.79    4.60
   5   1   7  110.79    4.50
  -5   0  -7   64.29    3.70
   0   5  -7   61.19    3.20
  -5   0  -7   68.89    4.20
  -5   0  -7   62.69    4.30
   0   5  -7   59.59    3.30
   0  -5   7   64.19    5.40
   0  -5   7   70.49    3.80
   5   0   7   57.19    3.00
   5   0   7   59.69    3.10
  -5   1  -7   55.09    3.40
   1   4  -7   54.49    3.00
  -5   1  -7   48.50    5.80
   1   4  -7   54.09    2.90
   1   4  -7   56.49    5.40
  -1  -4   7   51.99    5.00
   5  -1   7   50.79    2.60
   5  -1   7   56.49    7.20
   2   3  -7  103.49    4.90
   2   3  -7  109.89    4.60
  -5   2  -7  107.29    8.10
   2   3  -7  106.39    7.50
  -5   2  -7  108.39    5.10
   3  -5  -7  113.49    6.90
  -3   5   7  120.69    9.90
   5  -2   7  111.39    9.60
   5  -2   7  105.99    4.30
  -2  -3   7  123.49    7.50
   5  -2   7  104.39    5.40
   2  -5  -7  810.32   27.10
   2  -5  -7  721.63   24.20
   3   2  -7  796.22   28.00
   3   2  -7  706.03   22.80
   3   2  -7  629.94   26.70
  -5   3  -7  679.13   23.40
   3   2  -7  776.32   23.00
   2  -5  -7  794.22   24.80
  -3  -2   7  760.82   26.70
   5  -3   7  738.63   24.00
   5  -3   7  718.83   22.50
  -2   5   7  718.33   31.40
   4   1  -7  302.07   10.50
   1  -5  -7  284.27   11.30
   4   1  -7  289.37   13.20
   1  -5  -7  288.77   11.10
  -5   4  -7  283.07   10.60
   4   1  -7  300.57   10.20
   1  -5  -7  273.77    9.60
   1  -5  -7  315.07   13.90
   4   1  -7  297.57   15.70
   1  -5  -7  304.07   12.50
   4   1  -7  299.07   11.10
   4   1  -7  293.17   10.10
   5  -4   7  287.97    9.90
   5  -4   7  299.37   19.70
  -4  -1   7  295.67   15.50
   5  -4   7  288.87    9.70
  -4  -1   7  309.27   13.40
   5  -4   7  302.07   11.20
   5   0  -7    8.80    1.40
   0  -5  -7    6.30    1.10
   5   0  -7    5.40    1.10
   0  -5  -7    7.60    1.80
   0  -5  -7    8.90    1.70
   5   0  -7    6.40    1.20
   0  -5  -7    4.60    2.00
   0  -5  -7    5.00    1.80
   5  -5   7    6.20    1.10
  -5   0   7    6.20    2.20
   5  -5   7    5.20    1.40
   5  -5   7    5.20    1.50
  -1  -5  -7   59.29    4.00
  -1  -5  -7   56.09    5.10
  -1  -5  -7   65.29    4.00
   6  -1  -7   65.79    4.60
   6  -1  -7   56.49    5.90
  -1  -5  -7   59.19    3.00
   6  -1  -7   60.29    3.50
   6  -1  -7   57.39    3.20
   6  -1  -7   56.79    3.10
  -1  -5  -7   57.79    3.20
  -1  -5  -7   59.09    5.60
   5  -6   7   58.59    2.80
   5  -6   7   54.19    3.90
   5  -6   7   54.39    3.80
  -2  -5  -7  421.36   15.10
   7  -2  -7  429.26   15.60
   7  -2  -7  423.16   14.50
  -5   7  -7  425.36   13.80
  -2  -5  -7  394.86   17.00
  -2  -5  -7  433.56   13.50
  -2  -5  -7  417.06   15.00
   7  -2  -7  413.56   17.30
  -2  -5  -7  379.46   17.60
   7  -2  -7  404.66   13.70
   7  -2  -7  427.16   13.90
   5  -7   7  414.36   15.10
   5  -7   7  394.66   13.10
   5  -7   7  400.96   15.00
   8  -3  -7   56.29    3.70
   8  -3  -7   54.89    3.00
  -5   8  -7   55.39    3.10
  -3  -5  -7   51.49    3.80
  -3  -5  -7   51.59    3.00
   8  -3  -7   53.49    5.10
  -3  -5  -7   54.99    5.00
   8  -3  -7   64.29    4.80
   8  -3  -7   54.49    3.20
   5  -8   7   54.99    3.00
   3   5   7   55.39    3.10
   5  -8   7   56.69    3.90
   5  -8   7   55.09    3.90
   9  -4  -7   20.40    2.80
   9  -4  -7   21.60    3.20
  -4  -5  -7   14.70    2.90
  -5   9  -7   16.40    1.80
   9  -4  -7   15.70    1.80
   9  -4  -7   13.70    1.70
   5  -9   7   17.40    2.30
   4   5   7   15.00    1.70
   5  -9   7   15.00    2.20
  10  -5  -7    1.30    0.70
  10  -5  -7    2.50    0.80
  -5  10  -7    2.60    0.70
  -5  -5  -7    1.20    0.70
  -5  10  -7    1.20    0.60
   5   5   7    1.60    0.60
   5 -10   7    1.60    0.80
   5 -10   7    1.50    0.70
   5   5   7    2.00    0.60
  -4  10  -7   28.30    2.10
  10  -6  -7   30.50    1.80
  10  -6  -7   28.30    1.70
  -4  10  -7   29.90    1.70
  -6  -4  -7   29.80    2.90
   4 -10   7   32.30    2.40
   6   4   7   30.40    1.50
   6   4   7   32.00    1.80
  -6  -3  -7  116.09    5.50
  -6  -3  -7  118.59    6.90
   9  -6  -7  121.89    4.80
   9  -6  -7  125.69    4.90
  -3   9  -7  121.39    4.80
   9  -6  -7  127.79    5.50
  -3   9  -7  119.99    4.70
   6   3   7  126.79    4.60
   3  -9   7  116.29    5.80
   6   3   7  129.29    4.80
  -6  -2  -7   75.79    5.80
   8  -6  -7   79.99    3.80
   8  -6  -7   79.99    4.40
  -2   8  -7   83.49    3.90
  -2   8  -7   80.39    3.70
   8  -6  -7   77.89    3.70
  -6  -2  -7   82.49    5.00
   6   2   7   86.59    3.70
   2  -8   7   80.19    4.90
   6   2   7   81.09    3.80
   7  -6  -7   47.80    2.80
   7  -6  -7   43.10    2.70
  -1   7  -7   44.60    2.80
  -6  -1  -7   44.00    3.70
  -1   7  -7   43.10    2.60
   1  -7   7   44.70    3.50
   6   1   7   45.20    2.60
   6   1   7   44.00    2.70
   0   6  -7  123.39    5.20
  -6   0  -7  125.19    5.80
  -6   0  -7  119.99    6.60
   0   6  -7  123.89    5.30
   0  -6   7  146.39    6.20
   6   0   7  127.29    6.30
   6   0   7  121.59    5.10
   6   0   7  124.19    5.00
  -6   1  -7   45.10    3.20
   1   5  -7   43.50    2.80
  -6   1  -7   43.30    3.50
   1   5  -7   40.60    2.50
   6  -1   7   38.80    2.50
   6  -1   7   41.80    2.50
  -1  -5   7   42.80    4.80
   6  -1   7   40.30    3.40
  -6   2  -7  219.98    8.80
  -6   2  -7  205.48    8.30
   2   4  -7  203.48    7.50
   2   4  -7  207.98    7.70
  -2  -4   7  214.68   11.00
   6  -2   7  203.28    7.40
   6  -2   7  200.88    8.50
   6  -2   7  196.78    7.20
   3   3  -7  635.64   22.70
   3  -6  -7  604.24   20.60
   3   3  -7  638.44   19.70
   3  -6  -7  641.44   23.30
   3  -6  -7  602.04   20.90
  -6   3  -7  650.53   20.80
   3  -6  -7  606.24   19.00
  -6   3  -7  590.74   20.30
   3   3  -7  598.34   19.40
   6  -3   7  613.04   19.20
   6  -3   7  597.34   20.60
  -3  -3   7  625.84   23.70
  -6   4  -7  470.25   16.20
   4   2  -7  470.25   18.80
   2  -6  -7  464.05   15.00
   4   2  -7  490.05   15.60
   2  -6  -7  474.55   16.70
   2  -6  -7  505.05   19.80
   2  -6  -7  465.85   17.00
   4   2  -7  466.05   15.40
   6  -4   7  480.15   15.10
   6  -4   7  471.45   16.60
  -4  -2   7  490.45   19.50
   5   1  -7  217.38    7.90
  -6   5  -7  217.78    8.50
   5   1  -7  212.68   11.10
   1  -6  -7  224.68    9.30
   1  -6  -7  217.68    7.60
   5   1  -7  216.48    9.20
   5   1  -7  214.08    8.20
   1  -6  -7  226.48   11.80
   1  -6  -7  207.98    7.70
   1  -6  -7  218.58    9.40
   5   1  -7  224.78    8.10
   6  -5   7  220.38    9.10
   6  -5   7  212.18    7.80
  -5  -1   7  213.28   10.90
   6  -5   7  214.48    7.60
   6   0  -7  383.86   16.50
   6   0  -7  367.96   14.10
   6   0  -7  386.26   12.70
   0  -6  -7  391.26   17.10
   0  -6  -7  353.06   14.00
   0  -6  -7  350.16   15.20
   0  -6  -7  358.96   12.30
   0  -6  -7  373.86   12.20
   0  -6  -7  369.56   13.80
   6   0  -7  379.46   13.00
   6   0  -7  372.36   12.50
   6  -6   7  364.36   12.00
   6  -6   7  392.16   13.90
  -1  -6  -7    2.80    1.30
   7  -1  -7    1.50    1.40
  -1  -6  -7    0.80    1.00
   7  -1  -7   -0.10    1.40
   7  -1  -7    2.40    0.90
  -1  -6  -7    1.70    1.70
  -1  -6  -7    3.90    1.30
  -1  -6  -7    2.40    1.00
  -6   7  -7    3.20    1.10
  -1  -6  -7    2.20    1.00
   7  -1  -7    1.80    1.10
   7  -1  -7    2.60    1.00
   6  -7   7    1.70    0.90
   6  -7   7    2.50    1.20
   6  -7   7    2.60    0.90
  -2  -6  -7   34.20    2.40
   8  -2  -7   34.80    2.40
  -6   8  -7   37.80    2.60
   8  -2  -7   41.20    4.20
   8  -2  -7   37.50    2.60
   8  -2  -7   40.50    3.10
  -2  -6  -7   30.70    3.70
  -2  -6  -7   41.60    3.40
   6  -8   7   32.30    2.90
   6  -8   7   38.40    3.30
   6  -8   7   35.80    2.10
   2   6   7   35.70    2.50
  -3  -6  -7   29.70    2.00
   9  -3  -7   30.20    2.10
  -3  -6  -7   27.90    3.30
   9  -3  -7   33.90    2.90
   9  -3  -7   29.50    2.10
   9  -3  -7   32.40    3.30
  -6   9  -7   33.40    2.30
   6  -9   7   31.00    2.80
   3   6   7   30.90    2.10
   6  -9   7   29.40    2.50
  10  -4  -7   17.00    1.40
  -4  -6  -7   17.00    2.20
  -6  10  -7   19.10    1.40
  10  -4  -7   17.10    1.40
  10  -4  -7   20.50    2.00
   4   6   7   19.90    1.40
   4   6   7   19.50    1.30
   6 -10   7   18.10    1.80
  -7  -3  -7   92.19    4.80
   7   3   7   91.89    3.90
   3 -10   7   97.69    4.20
   9  -7  -7    9.60    1.30
  -7  -2  -7    9.40    2.30
   9  -7  -7   10.20    1.40
  -2   9  -7   10.10    1.40
  -7  -2  -7    9.50    1.80
   7   2   7   11.50    1.20
   2  -9   7   10.90    1.90
   7   2   7   11.80    1.40
  -1   8  -7   11.30    1.60
  -1   8  -7    9.90    1.30
   8  -7  -7    7.90    1.50
  -7  -1  -7    8.80    1.90
   8  -7  -7    9.20    1.30
   7   1   7   10.40    1.60
   7   1   7   10.50    1.40
   1  -8   7   11.40    2.10
   0   7  -7   69.59    3.40
  -7   0  -7   73.59    3.90
   0   7  -7   79.49    3.90
  -7   0  -7   72.99    4.80
   7   0   7   72.39    3.60
   7   0   7   76.49    3.50
   1   6  -7  381.86   12.80
   1   6  -7  380.76   12.50
  -7   1  -7  369.46   14.30
  -7   1  -7  377.96   13.40
   7  -1   7  398.16   12.40
   7  -1   7  381.36   12.60
  -1  -6   7  361.96   16.40
  -7   2  -7  344.07   13.30
   2   5  -7  357.56   12.20
  -7   2  -7  351.46   12.80
   2   5  -7  337.57   11.80
   7  -2   7  345.87   11.80
   7  -2   7  402.46   16.10
   7  -2   7  363.46   11.70
  -2  -5   7  342.07   15.80
   4  -7  -7   80.59    4.80
   4  -7  -7   90.49    4.80
  -7   3  -7   87.39    4.70
   3   4  -7   86.19    3.90
   4  -7  -7   84.09    4.90
   3   4  -7   85.29    4.10
   7  -3   7   82.09    4.70
   7  -3   7   82.59    3.80
   7  -3   7   83.79    3.80
  -3  -4   7   76.29    6.40
   3  -7  -7  134.39    6.60
   4   3  -7  131.29    5.40
   3  -7  -7  134.09    6.70
   4   3  -7  135.49    5.60
  -7   4  -7  136.49    6.20
   3  -7  -7  138.89    5.20
   7  -4   7  133.29    5.30
   7  -4   7  138.09    5.20
  -4  -3   7  127.29    8.40
   7  -4   7  136.49    6.40
   2  -7  -7   85.49    6.70
   2  -7  -7   94.69    5.40
   5   2  -7   93.39    6.70
  -7   5  -7   93.19    4.80
   5   2  -7   83.89    5.00
   5   2  -7   90.19    4.10
   2  -7  -7   95.49    5.60
   2  -7  -7   93.69    4.20
   2  -7  -7   94.09    4.00
   5   2  -7   95.69    4.40
  -5  -2   7   95.29    7.00
   7  -5   7   90.79    3.90
   7  -5   7   95.49    5.20
   6   1  -7   41.20    3.80
   1  -7  -7   52.89    4.00
   1  -7  -7   47.60    5.20
   6   1  -7   47.50    2.70
   1  -7  -7   44.50    3.80
   6   1  -7   48.90    2.90
  -7   6  -7   47.10    3.10
   6   1  -7   47.70    4.90
   1  -7  -7   45.20    2.90
   1  -7  -7   44.80    2.80
   7  -6   7   46.70    2.60
   7  -6   7   46.40    3.50
   7   0  -7  111.69    4.70
   0  -7  -7  119.09    4.80
   0  -7  -7  116.19    4.80
   7   0  -7  109.69    5.10
   0  -7  -7  114.29    6.10
  -7   7  -7  113.59    4.90
   0  -7  -7  107.79    5.90
   7   0  -7  119.29    5.00
   7   0  -7  105.39    6.10
   7  -7   7  109.99    4.50
   7  -7   7  112.99    5.80
   8  -1  -7   70.09    3.50
   8  -1  -7   71.79    3.30
  -7   8  -7   69.79    3.50
  -1  -7  -7   69.79    4.30
  -1  -7  -7   65.89    4.20
   8  -1  -7   63.29    4.50
   8  -1  -7   64.89    3.80
  -1  -7  -7   73.79    3.40
   7  -8   7   69.29    3.10
   7  -8   7   68.59    4.20
  -8   1   7   64.49    5.90
  -7   9  -7   30.30    2.10
   9  -2  -7   27.80    1.90
  -2  -7  -7   28.70    1.90
  -2  -7  -7   27.40    2.70
   9  -2  -7   29.60    2.00
   9  -2  -7   22.50    2.70
   9  -2  -7   26.30    2.50
   7  -9   7   30.10    2.50
   2   7   7   28.60    1.90
   7  -9   7   30.00    1.70
  10  -3  -7   54.39    2.30
  10  -3  -7   53.69    2.70
  -7  10  -7   55.99    2.40
   3   7   7   52.19    2.40
 -10   3   7   49.40    3.10
   7 -10   7   55.29    2.90
   3   7   7   47.40    2.60
  -8  -1  -7  134.59    5.70
  -1   9  -7  141.99    5.00
   8   1   7  138.19    4.60
   8   1   7  135.09    4.90
   1  -9   7  134.49    5.50
   0   8  -7    9.80    1.50
  -8   0  -7    8.50    1.90
   8   0   7   10.40    1.20
   8   0   7    9.90    1.50
   1   7  -7   50.09    2.90
  -8   1  -7   49.70    3.20
  -8   1  -7   44.70    3.60
   8  -1   7   48.80    2.70
   8  -1   7   51.09    2.60
   2   6  -7  101.99    4.60
  -8   2  -7  104.09    5.10
  -8   2  -7  100.19    5.60
   8  -2   7  101.19    4.40
   8  -2   7  106.29    4.30
   3   5  -7   84.39    4.10
  -8   3  -7   85.49    4.60
   3   5  -7   87.09    4.20
   8  -3   7   87.09    3.80
   8  -3   7   85.39    3.90
   4  -8  -7   17.10    2.60
  -8   4  -7   21.10    2.30
   4  -8  -7   18.70    2.50
   4  -8  -7   18.70    1.80
   4   4  -7   19.90    1.70
   4   4  -7   21.30    2.00
  -4  -4   7   17.50    3.40
   8  -4   7   18.90    1.90
   8  -4   7   22.10    1.80
   3  -8  -7   10.20    2.10
   3  -8  -7   10.90    2.30
   5   3  -7   15.90    1.80
  -8   5  -7   13.70    2.00
   5   3  -7   13.70    1.50
   3  -8  -7   11.20    1.70
   3  -8  -7   14.20    1.90
   8  -5   7   13.90    1.70
   8  -5   7   13.00    2.10
   8  -5   7   14.40    1.60
  -5  -3   7   12.50    3.50
   2  -8  -7   63.79    4.50
   2  -8  -7   63.89    3.40
   2  -8  -7   61.69    4.40
  -8   6  -7   62.29    3.60
   2  -8  -7   63.49    3.20
   6   2  -7   67.89    3.50
   6   2  -7   63.19    3.10
   8  -6   7   64.69    3.10
  -6  -2   7   66.19    5.90
   8  -6   7   62.89    4.00
   1  -8  -7   39.60    3.50
  -8   7  -7   44.00    2.60
   1  -8  -7   44.90    2.70
   7   1  -7   41.50    3.20
   1  -8  -7   38.80    3.50
   7   1  -7   44.20    2.70
   7   1  -7   43.10    2.40
   1  -8  -7   44.50    2.70
   8  -7   7   41.30    2.40
   8  -7   7   43.00    3.20
  -7  -1   7   44.40    4.90
   8   0  -7   93.59    3.80
   8   0  -7   96.69    4.10
   0  -8  -7   96.19    5.00
   0  -8  -7   93.99    5.10
   0  -8  -7  104.49    4.00
  -8   8  -7   96.29    4.10
   8   0  -7   91.39    4.90
  -8   0   7   96.19    6.30
   8  -8   7   94.39    3.80
   8  -8   7   93.69    4.70
  -8   9  -7   20.20    1.60
   9  -1  -7   20.00    1.30
   9  -1  -7   15.30    1.60
   9  -1  -7   21.70    1.70
  -1  -8  -7   26.10    2.00
  -1  -8  -7   19.40    2.20
  -1  -8  -7   19.20    1.60
   8  -9   7   20.40    1.40
   8  -9   7   21.10    2.10
  -9   1   7   20.60    2.80
   1   8   7   19.30    1.60
   1   8  -7    4.30    0.80
  -9   1  -7    3.20    0.90
   9  -1   7    4.20    0.70
   9  -1   7    6.40    1.00
  -9   2  -7   37.40    2.50
  -9   2  -7   35.40    2.80
   2   7  -7   37.60    2.20
   9  -2   7   41.90    2.10
   9  -2   7   36.70    2.10
   3   6  -7   85.39    3.80
  -9   3  -7   82.99    4.30
  -9   3  -7   80.59    4.10
   9  -3   7   84.29    3.60
   9  -3   7   84.59    3.40
  -9   4  -7   18.20    2.10
   4   5  -7   17.00    1.70
   5  -9  -7   16.70    1.60
   9  -4   7   18.50    1.70
   9  -4   7   18.60    1.60
  -9   5  -7   12.20    1.90
   5   4  -7   12.40    1.60
   4  -9  -7   10.90    1.80
   4  -9  -7    8.40    1.90
   4  -9  -7   11.60    1.40
   9  -5   7   12.20    1.40
  -5  -4   7    9.60    2.40
   9  -5   7   10.60    1.40
   3  -9  -7   94.19    3.90
   6   3  -7   90.99    3.90
   3  -9  -7   85.59    4.80
   3  -9  -7   84.69    4.80
  -9   6  -7   93.09    4.20
   3  -9  -7   89.89    3.70
   9  -6   7   88.69    3.60
   9  -6   7   88.59    3.60
  -6  -3   7   86.29    5.80
   2  -9  -7  513.25   17.20
  -9   7  -7  562.34   16.50
   2  -9  -7  525.65   15.70
   7   2  -7  495.65   15.90
   2  -9  -7  491.15   15.70
   2  -9  -7  507.65   17.00
  -7  -2   7  495.85   18.50
   9  -7   7  468.85   16.30
   8   1  -7  103.89    4.10
   1  -9  -7  104.49    4.90
   1  -9  -7  113.49    4.00
  -9   8  -7   99.29    3.90
   1  -9  -7  101.49    4.90
  -8  -1   7  104.99    4.80
  -8  -1   7  102.09    5.90
   9  -8   7  107.89    3.80
   9  -8   7   98.89    4.30
   3   7  -7   71.99    2.90
 -10   3  -7   72.99    3.30
 -10   4  -7   31.70    2.10
   4   6  -7   32.10    1.80
  10  -4   7   28.70    1.60
  10  -4   7   31.90    1.60
   5 -10  -7    7.00    1.20
   5   5  -7    8.60    1.20
 -10   5  -7   10.00    1.40
  10  -5   7    9.30    1.10
  10  -5   7    8.50    1.00
 -10   6  -7    9.40    1.30
   6   4  -7    9.60    1.10
   4 -10  -7   11.10    2.00
  -6  -4   7    7.60    1.90
  10  -6   7    9.60    1.00
   3 -10  -7    8.00    2.10
   3 -10  -7    7.80    1.20
   3 -10  -7    6.20    1.20
   7   3  -7    7.90    1.00
  10  -7   7    8.20    0.90
  -7  -3   7    5.90    1.70
   0   0  -8    2.40    1.50
   0   0  -8    4.10    1.40
   0   0   8    6.10    2.50
  -1   0  -8  447.96   16.50
   1  -1  -8  444.96   16.60
   1  -1  -8  420.16   18.10
  -1   0  -8  447.96   18.30
   0   1  -8  442.06   17.80
   0  -1   8  451.85   16.50
   0  -1   8  382.56   18.60
  -1   1   8  417.46   19.00
   1   0   8  451.65   20.40
   0  -1  -8  112.39    7.50
   1   0  -8  107.19    7.20
  -1   1  -8   93.59    6.80
   0  -1  -8  105.29    6.20
   1  -1   8  117.09    8.60
   0   1   8  118.49    8.70
  -1   0   8  104.89    7.50
  -1  -1  -8   84.79    6.70
  -1  -1  -8   76.89    5.20
   2  -1  -8   81.99    6.40
  -1   2  -8   68.09    5.40
   1  -2   8   78.59    5.10
   1  -2   8   75.39    7.10
   1   1   8   81.59    7.50
  -2  -1  -8  742.23   28.70
  -2  -1  -8  740.93   25.80
   2   1   8  745.13   30.80
   1  -3   8  729.23   29.70
   1  -3   8  725.83   25.60
   2  -2  -8  564.24   20.10
  -2   0  -8  551.44   19.80
   0   2  -8  518.85   20.60
   2  -2  -8  518.35   21.60
  -2   0  -8  530.95   22.00
   0  -2   8  512.65   22.50
   2   0   8  556.84   24.40
   0  -2   8  595.44   20.30
  -2   2   8  529.45   22.30
  -2   1  -8   17.50    2.40
  -2   1  -8   12.60    2.60
   1   1  -8   26.50    3.50
   1  -2  -8   13.50    2.40
   1  -2  -8   19.30    3.30
   2  -1   8    9.10    3.20
  -1  -1   8   13.60    2.30
  -1   2   8   13.90    3.20
  -1  -1   8   15.40    5.30
  -2   2  -8  448.56   18.60
   0  -2  -8  481.85   20.00
   2   0  -8  464.35   19.60
   0  -2  -8  453.65   17.80
   2  -2   8  458.55   21.50
   2  -2   8  490.75   17.30
  -2   0   8  473.05   17.90
   0   2   8  488.25   22.00
  -1  -2  -8  103.49    7.90
  -1  -2  -8  110.29    6.70
  -3   1   8  108.99    6.60
  -3   1   8  116.69    8.30
   2  -3   8  109.69    9.20
   1   2   8  113.49    9.40
   2  -3   8  106.79    6.20
  -2  -2  -8  142.09    8.20
  -2  -2  -8  145.09   10.00
  -4   2   8  144.89   10.00
   2   2   8  154.28   11.60
   2  -4   8  134.09   10.80
  -4   2   8  156.98    8.30
  -3  -2  -8   15.40    2.80
   5  -3  -8   20.90    2.40
   5  -3  -8   22.10    2.90
   5  -3  -8   17.40    1.70
  -2   5  -8   18.70    1.80
  -3  -2  -8   18.70    2.40
  -3  -2  -8   14.40    2.40
  -3  -2  -8   14.80    1.70
   5  -3  -8   16.80    1.90
   2  -5   8   19.00    2.20
  -1   4  -8   35.40    2.30
   4  -3  -8   42.20    3.10
  -3  -1  -8   36.90    5.00
  -3  -1  -8   29.30    3.50
   4  -3  -8   38.10    2.90
  -3  -1  -8   29.60    3.10
  -3  -1  -8   42.30    3.00
  -4   3   8   38.30    3.80
   3   1   8   35.30    5.70
   1  -4   8   39.20    4.30
  -4   3   8   36.30    4.70
   1  -4   8   36.40    5.30
   1  -4   8   42.80    2.80
  -3   0  -8  119.09    8.60
  -3   0  -8  123.59    6.80
   3  -3  -8  117.09    8.30
   3  -3  -8  120.39    7.00
   0  -3   8  117.89    7.20
   0  -3   8  109.99    8.60
   3   0   8  112.59    9.70
   2  -3  -8  147.69    9.20
  -3   1  -8  139.19    9.10
   2  -3  -8  148.99    8.00
  -2   3   8  132.69    9.80
  -1  -2   8  151.08    8.80
  -1  -2   8  150.28    8.10
   3  -1   8  149.99   10.90
   1  -3  -8  301.77   14.90
  -3   2  -8  306.67   14.40
   1  -3  -8  312.17   13.50
   3  -2   8  328.77   17.40
  -2  -1   8  312.67   13.50
  -1   3   8  331.57   17.20
  -2  -1   8  321.07   15.10
   0  -3  -8   47.40    5.20
   0  -3  -8   38.50    4.00
  -3   0   8   47.20    4.30
  -3   0   8   43.70    5.20
   3  -3   8   39.60    5.90
   0   3   8   38.20    5.70
  -1  -3  -8  284.87   12.20
   4  -1  -8  268.17   10.00
  -1  -3  -8  265.77   10.60
  -1  -3  -8  268.07   10.60
   4  -1  -8  285.17   12.20
   4  -1  -8  267.87    9.40
  -1  -3  -8  289.67   14.80
   4  -1  -8  277.57   10.70
  -1  -3  -8  280.97   12.90
  -4   1   8  279.57   14.90
   3  -4   8  284.87   16.80
   3  -4   8  269.97   10.80
  -4   1   8  276.77   12.50
   1   3   8  282.57   16.80
  -2  -3  -8  153.88    8.10
  -2  -3  -8  128.69    5.10
   5  -2  -8  135.49    6.60
  -2  -3  -8  131.39    6.50
   5  -2  -8  137.69    5.40
  -3   5  -8  132.19    5.50
  -2  -3  -8  137.59    8.30
   5  -2  -8  133.59    5.90
  -2  -3  -8  122.79    6.40
  -2  -3  -8  146.69    6.50
   5  -2  -8  135.79    7.90
   3  -5   8  120.79    6.00
   3  -5   8  122.19    6.40
  -3  -3  -8  122.09    4.80
  -3  -3  -8  109.69    7.50
  -3  -3  -8  121.69    6.20
   6  -3  -8  118.29    4.90
   6  -3  -8  117.49    6.30
  -3  -3  -8  110.79    6.00
   6  -3  -8  120.89    5.60
  -3   6  -8  122.39    5.10
   6  -3  -8  110.29    7.60
  -3  -3  -8  113.29    7.50
   6  -3  -8  120.59    5.00
   3  -6   8  114.79    5.70
   3   3   8  108.69    4.70
   3  -6   8  116.69    6.20
  -3   7  -8    4.60    1.50
  -4  -3  -8    8.00    1.90
   7  -4  -8    5.80    1.20
  -4  -3  -8    3.20    1.50
   7  -4  -8    3.90    1.70
   7  -4  -8    7.60    1.40
  -3   7  -8    7.10    1.40
   3  -7   8    8.20    1.90
   3  -7   8    7.50    1.90
   4   3   8    6.70    1.20
  -2   6  -8   19.10    1.80
  -4  -2  -8   11.50    2.20
   6  -4  -8   14.50    2.50
  -4  -2  -8   18.80    2.60
   6  -4  -8   15.10    2.00
   6  -4  -8   13.30    3.80
   6  -4  -8   18.20    1.70
   2  -6   8   15.90    2.30
   4   2   8   17.90    1.70
  -1   5  -8   46.30    2.80
   5  -4  -8   45.60    2.60
   5  -4  -8   47.60    3.50
  -4  -1  -8   38.80    3.50
   5  -4  -8   44.00    3.00
  -4  -1  -8   41.70    3.60
   5  -4  -8   53.09    4.30
  -4  -1  -8   45.20    3.00
   1  -5   8   55.09    3.40
   4   1   8   43.20    2.60
   1  -5   8   47.00    4.60
   4  -4  -8  112.19    5.60
   4  -4  -8  117.89    6.40
  -4   0  -8  104.39    5.60
   0   4  -8  105.79    4.70
  -4   0  -8  111.19    5.60
   4  -4  -8  104.39    4.90
   4  -4  -8  113.49    6.90
  -4   0  -8  107.99    5.20
  -4   0  -8  115.79    5.70
   0  -4   8  116.39    5.30
   4   0   8  102.39    4.30
  -4   4   8  110.29    8.40
   0  -4   8  117.89    7.50
  -4   1  -8   33.40    4.50
   3  -4  -8   37.10    3.80
   3  -4  -8   36.50    4.70
  -4   1  -8   35.00    2.60
   1   3  -8   35.30    2.30
   4  -1   8   35.00    5.80
  -1  -3   8   43.90    4.60
   2   2  -8  369.66   15.80
   2  -4  -8  376.76   17.10
   2  -4  -8  400.06   15.90
  -4   2  -8  362.16   16.90
  -2  -2   8  386.46   15.90
  -2   4   8  346.57   19.00
   4  -2   8  365.86   19.50
   1  -4  -8  292.07   13.10
   3   1  -8  295.87   13.30
   3   1  -8  272.97    9.60
   3   1  -8  264.37   13.10
   1  -4  -8  268.97   10.80
   1  -4  -8  285.77   14.40
  -3  -1   8  301.37   15.00
   4  -3   8  273.77   10.70
  -1   4   8  298.87   17.20
   4  -3   8  284.37   16.80
  -3  -1   8  286.67   12.90
   0  -4  -8   28.00    2.50
   0  -4  -8   26.30    4.20
   0  -4  -8   26.60    3.70
   0  -4  -8   22.10    1.70
   4   0  -8   26.10    2.20
   4   0  -8   24.60    1.90
   4   0  -8   25.70    1.90
   0  -4  -8   24.40    2.50
  -4   4  -8   24.80    2.00
   0  -4  -8   27.00    2.40
  -4   4  -8   26.10    2.20
   4  -4   8   22.50    2.60
   4  -4   8   23.70    2.50
  -4   0   8   23.30    3.50
  -1  -4  -8  195.98   10.10
   5  -1  -8  206.08    8.70
  -1  -4  -8  194.38    8.40
   5  -1  -8  209.68    7.40
   5  -1  -8  200.18    7.30
  -1  -4  -8  193.38    8.50
  -1  -4  -8  192.88    8.50
  -1  -4  -8  196.38    7.00
   5  -1  -8  195.68   10.30
  -4   5  -8  202.48    7.40
   5  -1  -8  196.18    7.80
  -1  -4  -8  206.28   11.00
  -5   1   8  199.08   10.30
   4  -5   8  199.28    8.40
   4  -5   8  187.48    8.50
   6  -2  -8   41.30    2.60
  -4   6  -8   39.60    2.70
  -2  -4  -8   40.10    3.40
   6  -2  -8   40.70    3.60
   6  -2  -8   37.90    2.60
   6  -2  -8   40.30    5.30
  -2  -4  -8   37.90    3.30
  -2  -4  -8   39.00    4.50
   6  -2  -8   39.20    2.90
  -2  -4  -8   38.50    4.50
  -2  -4  -8   40.30    2.60
   4  -6   8   38.80    3.30
   4  -6   8   37.90    3.20
  -3  -4  -8   16.10    3.10
  -3  -4  -8   14.00    2.40
  -4   7  -8   18.00    2.00
   7  -3  -8   14.80    2.20
   7  -3  -8   24.10    5.00
   7  -3  -8   15.00    1.70
   7  -3  -8   17.50    1.90
  -3  -4  -8   12.30    1.80
   7  -3  -8   16.30    3.50
  -3  -4  -8   15.30    3.10
  -3  -4  -8   16.00    2.30
   4  -7   8   16.50    2.40
   3   4   8   11.90    1.70
   4  -7   8   16.20    2.40
  -4   8  -8   15.70    1.70
  -4  -4  -8   14.30    2.10
   8  -4  -8   14.50    2.40
  -4  -4  -8   13.90    3.10
   8  -4  -8   15.70    1.80
  -4  -4  -8   11.30    2.00
   8  -4  -8   15.30    1.70
   4  -8   8   15.70    2.40
   4   4   8   14.60    1.60
   4  -8   8   15.90    2.20
  -5  -4  -8    8.70    2.40
  -4   9  -8   10.90    1.40
  -4   9  -8   11.00    1.30
   9  -5  -8   14.00    2.40
   9  -5  -8   10.20    1.40
   9  -5  -8   17.10    2.50
   9  -5  -8    7.10    1.10
   4  -9   8   10.50    1.90
   5   4   8   10.70    1.40
   5   4   8   12.50    1.40
   4  -9   8   11.10    1.70
  -3   8  -8    1.70    0.90
   8  -5  -8    3.70    1.00
  -5  -3  -8    1.50    0.90
   8  -5  -8    1.40    1.30
  -5  -3  -8    1.80    1.00
  -3   8  -8    1.60    0.90
  -5  -3  -8    1.20    1.10
   8  -5  -8    2.30    1.00
   5   3   8    3.30    1.00
   5   3   8    2.40    0.80
   3  -8   8    1.30    1.00
   7  -5  -8  208.98    7.50
  -5  -2  -8  198.98    8.50
  -5  -2  -8  202.68   10.50
   7  -5  -8  195.28    8.80
  -5  -2  -8  198.38    8.90
  -2   7  -8  194.48    7.50
  -2   7  -8  210.88    7.60
   7  -5  -8  208.38    8.20
   5   2   8  215.58    7.40
   5   2   8  200.88    7.40
   2  -7   8  200.48    8.90
  -1   6  -8   46.80    2.80
   6  -5  -8   42.80    2.60
   6  -5  -8   40.70    3.10
   6  -5  -8   41.60    3.40
  -1   6  -8   42.70    2.70
  -5  -1  -8   43.10    3.50
  -5  -1  -8   42.40    3.70
   1  -6   8   46.90    3.40
   5   1   8   43.20    2.60
   5   1   8   46.10    2.60
   0   5  -8  190.88    7.20
  -5   0  -8  185.98    8.70
  -5   0  -8  194.58    7.80
   0   5  -8  195.88    7.30
   5   0   8  184.58    6.90
   0  -5   8  194.28    8.10
   0  -5   8  192.58   10.30
   1   4  -8   89.69    4.20
  -5   1  -8  112.69    5.40
   1   4  -8   97.49    4.30
  -5   1  -8   91.39    4.80
  -1  -4   8   98.79    7.10
   5  -1   8   91.29    5.40
   5  -1   8   89.79    4.00
   3  -5  -8  143.89    7.70
   3  -5  -8  145.69    8.30
  -5   2  -8  135.59    6.10
   3  -5  -8  130.99    6.30
   2   3  -8  130.39    5.40
   2   3  -8  134.39    5.50
   2   3  -8  127.19    7.70
  -5   2  -8  157.68    6.40
   5  -2   8  128.79    6.40
  -2  -3   8  150.08    8.80
   5  -2   8  130.89    5.10
   3   2  -8  492.95   19.10
   2  -5  -8  489.15   18.60
   2  -5  -8  477.95   17.20
   2  -5  -8  467.25   16.80
   2  -5  -8  512.35   19.90
   3   2  -8  496.15   15.90
  -5   3  -8  490.65   16.60
   3   2  -8  507.35   15.90
  -3  -2   8  503.85   19.80
   5  -3   8  487.35   15.50
   5  -3   8  493.45   17.10
   4   1  -8   44.00    4.90
   1  -5  -8   51.89    5.10
   1  -5  -8   46.30    2.50
   4   1  -8   48.60    2.80
   1  -5  -8   49.00    3.70
   4   1  -8   55.19    3.10
  -5   4  -8   47.20    3.20
   1  -5  -8   48.90    3.50
   1  -5  -8   48.70    4.60
   4   1  -8   49.30    2.80
   5  -4   8   48.40    3.60
  -4  -1   8   53.49    5.20
   5  -4   8   48.00    2.50
   5  -4   8   48.80    3.60
   0  -5  -8   14.60    3.10
   5   0  -8   18.70    1.80
   0  -5  -8   13.30    1.60
   5   0  -8   13.10    1.60
   0  -5  -8   14.10    2.10
  -5   5  -8   15.80    1.70
   0  -5  -8   13.40    2.20
  -5   5  -8   14.50    1.80
   5   0  -8   17.50    1.90
   0  -5  -8   12.60    2.70
   5  -5   8   15.20    1.50
   5  -5   8   13.70    2.10
  -5   0   8   12.90    3.30
   5  -5   8   11.70    2.10
  -1  -5  -8  400.96   14.90
  -1  -5  -8  426.66   13.20
  -1  -5  -8  384.16   17.60
  -1  -5  -8  401.36   16.80
   6  -1  -8  407.56   14.10
   6  -1  -8  405.36   15.20
   6  -1  -8  428.16   17.50
   6  -1  -8  415.26   13.50
  -1  -5  -8  387.26   14.90
   6  -1  -8  422.56   13.50
  -5   6  -8  413.06   13.50
   5  -6   8  384.46   12.80
   5  -6   8  398.66   14.80
   5  -6   8  390.66   14.70
   7  -2  -8  190.88    7.00
  -5   7  -8  194.28    7.20
  -2  -5  -8  192.58    8.10
   7  -2  -8  185.68    8.60
   7  -2  -8  174.78    7.50
  -2  -5  -8  171.78    9.60
  -2  -5  -8  186.48    6.70
   7  -2  -8  190.18   10.30
   7  -2  -8  187.58    7.00
  -2  -5  -8  179.78    8.10
   2   5   8  168.78    6.70
   5  -7   8  176.38    8.00
   5  -7   8  175.78    8.00
  -3  -5  -8    2.50    1.40
   8  -3  -8    4.50    1.10
   8  -3  -8    4.10    1.10
  -5   8  -8    5.40    1.20
   8  -3  -8    4.10    1.40
  -3  -5  -8    3.10    1.10
  -3  -5  -8    2.20    1.20
   8  -3  -8    3.10    1.50
   5  -8   8    4.70    1.30
   5  -8   8    4.30    1.30
   3   5   8    2.70    0.90
  -5   9  -8   13.30    1.50
   9  -4  -8   18.80    2.80
   9  -4  -8   10.80    1.40
   9  -4  -8   10.50    1.50
   9  -4  -8   18.00    2.50
  -4  -5  -8   12.70    2.50
   4   5   8   12.10    1.40
   5  -9   8   11.70    1.90
   5  -9   8   13.20    1.90
   4   5   8   15.50    1.60
   9  -6  -8   21.70    2.50
   9  -6  -8   17.50    1.50
  -3   9  -8   17.70    1.50
  -3   9  -8   18.20    1.50
  -6  -3  -8   16.20    2.70
  -6  -3  -8   17.00    1.90
   9  -6  -8   16.20    1.60
   6   3   8   18.70    1.50
   6   3   8   18.30    1.60
   3  -9   8   19.00    2.20
   8  -6  -8   28.60    2.80
  -6  -2  -8   31.00    3.00
  -6  -2  -8   29.10    3.70
   8  -6  -8   30.60    2.20
  -2   8  -8   31.50    2.20
  -2   8  -8   31.30    2.20
   2  -8   8   31.60    3.00
   6   2   8   35.40    2.20
   6   2   8   32.40    2.20
   7  -6  -8  241.38    8.70
  -6  -1  -8  244.38   10.40
  -1   7  -8  257.27    9.00
  -1   7  -8  241.88    8.80
  -6  -1  -8  285.37   11.40
   1  -7   8  242.08   10.10
   6   1   8  253.17    8.70
   6   1   8  246.08    9.80
   6   1   8  248.08    8.70
  -6   0  -8  162.08    6.80
   0   6  -8  155.58    6.20
   0   6  -8  151.98    6.10
  -6   0  -8  149.29    7.60
   6   0   8  158.38    5.90
   0  -6   8  152.78    9.10
   6   0   8  152.58    6.00
   6   0   8  154.98    7.20
   0  -6   8  166.98    7.00
   1   5  -8    9.80    1.60
  -6   1  -8    9.80    2.20
   1   5  -8   11.40    1.50
  -6   1  -8   11.50    2.00
   6  -1   8   13.60    2.50
  -1  -5   8   10.40    2.80
   6  -1   8   10.80    1.40
  -6   2  -8   20.30    2.30
   2   4  -8   19.20    1.90
   2   4  -8   20.00    1.90
  -2  -4   8   23.40    3.70
   6  -2   8   20.20    1.80
   6  -2   8   21.80    2.60
  -6   3  -8  564.64   19.20
   3   3  -8  568.04   21.40
   3   3  -8  556.24   18.30
  -6   3  -8  664.43   20.70
   3   3  -8  562.84   18.40
   3  -6  -8  561.24   19.80
   3  -6  -8  549.25   19.30
   3  -6  -8  555.94   22.10
  -3  -3   8  586.04   22.70
   6  -3   8  576.54   19.60
   6  -3   8  580.94   18.00
   4   2  -8  438.86   14.40
   2  -6  -8  431.76   15.60
   4   2  -8  452.45   14.50
  -6   4  -8  437.56   15.10
   2  -6  -8  433.66   15.90
   2  -6  -8  408.66   13.80
   2  -6  -8  453.45   18.60
   4   2  -8  444.86   17.80
   6  -4   8  438.86   14.00
   6  -4   8  438.96   15.60
  -4  -2   8  427.06   18.30
   5   1  -8   80.19    6.70
   5   1  -8   90.89    5.20
  -6   5  -8   89.09    4.00
   1  -6  -8   84.89    5.30
   1  -6  -8   84.29    6.00
   1  -6  -8   88.99    6.90
   5   1  -8   90.29    4.10
   5   1  -8   92.59    4.40
   1  -6  -8   87.39    5.10
   5   1  -8   88.89    4.20
   1  -6  -8   90.79    3.90
  -6   5  -8   81.39    4.40
   6  -5   8   87.39    5.00
  -5  -1   8   89.89    6.80
   6  -5   8   81.79    3.70
   0  -6  -8   89.19    6.40
   6   0  -8   81.59    6.90
   6   0  -8   91.09    4.20
   6   0  -8   91.19    4.50
   6   0  -8   84.19    5.50
   0  -6  -8   86.69    5.30
   0  -6  -8   89.49    5.30
   6   0  -8   92.29    4.20
  -6   6  -8   86.89    4.10
   0  -6  -8   89.69    7.20
   0  -6  -8   93.39    4.10
   6  -6   8   85.99    3.70
   6  -6   8   89.69    5.10
  -6   7  -8   89.79    4.20
  -1  -6  -8   87.39    5.10
   7  -1  -8   89.39    4.10
  -1  -6  -8   85.49    6.10
   7  -1  -8   95.59    4.30
   7  -1  -8   94.09    5.90
   7  -1  -8   91.49    4.60
   7  -1  -8   89.29    7.10
  -1  -6  -8   90.29    5.20
  -1  -6  -8   94.89    4.10
   6  -7   8   85.09    4.80
   6  -7   8   86.29    5.00
   6  -7   8   87.29    3.70
  -2  -6  -8   69.69    4.00
   8  -2  -8   62.69    3.30
   8  -2  -8   66.89    4.80
  -6   8  -8   66.99    3.40
  -2  -6  -8   66.69    4.30
   8  -2  -8   62.69    3.20
  -2  -6  -8   64.79    3.20
   8  -2  -8   65.79    3.80
  -2  -6  -8   59.69    4.90
   6  -8   8   61.49    3.90
   2   6   8   62.19    3.10
   6  -8   8   62.59    4.00
  -6   9  -8  163.18    5.80
  -3  -6  -8  144.39    6.30
  -3  -6  -8  152.08    7.50
   9  -3  -8  166.08    5.70
   9  -3  -8  155.28    6.80
   9  -3  -8  162.68    6.20
   9  -3  -8  154.88    5.60
   3   6   8  158.58    5.50
   6  -9   8  149.88    6.30
   6  -9   8  157.08    6.50
  -2   9  -8   69.19    2.80
  -2   9  -8   68.19    3.00
  -7  -2  -8   71.29    3.80
   9  -7  -8   69.99    3.00
  -7  -2  -8   66.59    4.20
   7   2   8   72.59    2.90
   7   2   8   70.99    2.80
   2  -9   8   71.19    3.70
  -1   8  -8  104.19    4.20
  -7  -1  -8  104.39    5.30
  -1   8  -8  102.39    4.30
   7   1   8  110.39    4.10
   7   1   8  102.79    4.20
   1  -8   8  103.09    5.10
   0   7  -8   26.80    2.00
  -7   0  -8   28.30    2.40
   0   7  -8   30.60    2.20
  -7   0  -8   25.80    2.90
   7   0   8   29.10    2.00
   7   0   8   28.40    2.10
   1   6  -8   46.40    2.70
  -7   1  -8   51.49    3.40
  -7   1  -8   47.00    3.70
   1   6  -8   47.90    2.90
   7  -1   8   49.20    2.70
   7  -1   8   52.59    2.70
   2   5  -8   65.29    3.40
  -7   2  -8   72.39    4.20
   2   5  -8   67.59    3.60
  -7   2  -8   69.99    4.40
   7  -2   8   73.09    3.40
   7  -2   8   67.49    4.20
   7  -2   8   66.89    3.30
   3   4  -8  317.67   10.80
  -7   3  -8  324.17   11.70
  -7   3  -8  310.07   11.60
   3   4  -8  304.47   10.60
   7  -3   8  322.57   10.50
   7  -3   8  301.57   11.60
  -3  -4   8  305.87   14.60
  -7   4  -8   38.70    3.10
   3  -7  -8   35.30    3.40
   3  -7  -8   36.10    3.40
   3  -7  -8   36.90    2.30
   4   3  -8   41.40    2.80
   4   3  -8   38.60    2.40
   7  -4   8   38.60    2.30
   7  -4   8   38.00    3.10
  -4  -3   8   35.80    4.60
   2  -7  -8   51.09    4.00
  -7   5  -8   52.89    3.50
   2  -7  -8   49.30    3.90
   5   2  -8   57.99    3.20
   5   2  -8   53.79    3.00
   2  -7  -8   50.39    2.90
   5   2  -8   53.19    5.00
   7  -5   8   54.99    2.70
   7  -5   8   52.09    3.80
  -7   6  -8   13.70    1.70
   1  -7  -8    9.80    1.60
   6   1  -8   11.90    1.60
   1  -7  -8    7.60    2.00
  -7   6  -8   13.80    1.90
   1  -7  -8    9.40    2.20
   6   1  -8   12.50    1.70
   7  -6   8   11.50    2.10
   7  -6   8   13.20    1.50
   0  -7  -8   -0.20    0.90
   7   0  -8    0.90    0.90
  -7   7  -8    1.30    0.90
   0  -7  -8    2.70    0.90
   7   0  -8    1.00    0.70
   7   0  -8    0.20    0.80
   0  -7  -8    2.70    1.20
   7   0  -8   -1.00    1.00
   0  -7  -8   -0.70    1.30
   7  -7   8    0.70    0.70
   7  -7   8    0.40    0.90
   8  -1  -8   45.70    3.10
   8  -1  -8   41.70    3.60
  -1  -7  -8   51.59    2.70
   8  -1  -8   47.90    2.70
  -1  -7  -8   48.00    3.40
  -1  -7  -8   45.00    3.60
   8  -1  -8   46.60    2.60
  -7   8  -8   47.40    2.70
   1   7   8   43.00    2.40
   7  -8   8   47.90    3.30
   7  -8   8   46.40    2.30
  -8   1   8   47.00    5.00
  -2  -7  -8   90.39    4.60
  -7   9  -8  104.09    4.00
   9  -2  -8   93.09    4.20
   9  -2  -8   94.09    3.90
   9  -2  -8   99.99    4.80
  -2  -7  -8  108.49    4.40
   9  -2  -8   94.49    3.80
  -9   2   8  115.69    5.30
   2   7   8   95.59    3.80
   7  -9   8  103.19    4.60
  -8  -1  -8  116.19    4.80
  -1   9  -8  121.99    4.60
   8   1   8  102.39    4.20
  -8   0  -8   12.60    1.90
   0   8  -8   14.80    1.50
   8   0   8   13.20    1.30
   8   0   8   14.80    1.30
   1   7  -8   58.99    3.00
  -8   1  -8   59.89    3.30
  -8   1  -8   56.49    3.80
   8  -1   8   60.89    2.80
   8  -1   8   57.59    2.80
   2   6  -8  162.48    6.00
  -8   2  -8  161.38    7.30
  -8   2  -8  176.48    7.00
   2   6  -8  170.38    6.40
   8  -2   8  169.48    6.10
   8  -2   8  173.48    6.10
   3   5  -8  138.59    5.50
  -8   3  -8  164.18    6.40
  -8   3  -8  147.29    6.40
   3   5  -8  145.89    5.80
   8  -3   8  139.99    5.50
   8  -3   8  150.88    5.50
   4   4  -8  131.79    5.10
   4   4  -8  140.69    5.50
  -8   4  -8  139.69    6.00
   4  -8  -8  128.79    6.20
   4  -8  -8  126.39    6.10
   8  -4   8  135.99    5.10
   8  -4   8  132.39    5.90
  -4  -4   8  121.29    7.20
   3  -8  -8    4.30    1.10
   5   3  -8    5.10    0.90
   3  -8  -8    1.60    1.30
   5   3  -8    5.10    1.20
  -8   5  -8    4.00    1.10
   3  -8  -8    2.30    1.10
   8  -5   8    5.10    1.30
  -5  -3   8    3.00    1.40
   8  -5   8    5.00    1.00
   2  -8  -8  236.38    9.80
   6   2  -8  235.78    8.30
   2  -8  -8  252.37    8.30
   6   2  -8  246.88    8.60
  -8   6  -8  236.28    8.90
   2  -8  -8  250.97    9.90
   8  -6   8  247.68    9.40
   8  -6   8  247.58    8.20
  -6  -2   8  248.18   11.70
   1  -8  -8   14.70    1.90
   7   1  -8   14.50    1.40
   1  -8  -8    8.60    2.20
  -8   7  -8   12.70    1.50
   1  -8  -8   16.50    1.60
   7   1  -8   14.10    1.70
   7   1  -8   13.40    1.90
   8  -7   8   12.40    2.10
   8  -7   8   14.40    1.40
  -7  -1   8   14.60    3.50
  -8   8  -8   31.00    2.00
   8   0  -8   33.10    2.00
   8   0  -8   32.80    2.60
   0  -8  -8   37.90    2.20
   0  -8  -8   31.20    2.80
   0  -8  -8   34.20    3.10
   8   0  -8   33.60    1.90
   8  -8   8   33.00    2.50
   0   8   8   32.40    2.00
   8  -8   8   34.30    1.80
  -8   0   8   33.10    3.70
  -1  -8  -8   10.40    1.10
  -8   9  -8   10.00    1.20
   9  -1  -8    9.30    1.10
   8  -9   8    9.90    1.40
   1   8  -8    1.90    0.60
  -9   1  -8    1.20    0.60
   9  -1   8    2.00    0.50
  -9   2  -8   79.19    3.50
   2   7  -8   78.69    3.30
  -9   2  -8   71.59    3.70
   9  -2   8   78.89    3.10
   9  -2   8   80.09    3.00
  -9   3  -8  118.49    4.50
   3   6  -8  102.09    4.20
  -9   3  -8  100.99    4.50
   9  -3   8  105.49    3.90
   9  -3   8   94.19    3.80
   4   5  -8   44.80    2.50
  -9   4  -8   45.00    2.80
   9  -4   8   45.70    2.30
  -9   5  -8    6.40    1.50
   5   4  -8    5.10    1.00
   4  -9  -8    6.20    1.60
   4  -9  -8    3.10    1.20
   4  -9  -8    5.70    1.00
   9  -5   8    6.90    1.20
   3  -9  -8    0.40    1.10
  -9   6  -8    2.80    0.90
   6   3  -8    2.50    0.80
   3  -9  -8    0.90    0.90
   3  -9  -8    2.00    0.90
  -6  -3   8    1.90    0.90
   9  -6   8    2.90    0.70
   2  -9  -8   42.00    3.10
   2  -9  -8   50.69    2.40
   2  -9  -8   41.70    3.20
   7   2  -8   44.60    2.30
   9  -7   8   43.90    2.60
  -7  -2   8   42.20    3.70
   9  -7   8   44.60    2.10
   8   1  -8   10.60    1.10
   1  -9  -8    9.30    1.60
   1  -9  -8    9.20    1.90
   1  -9  -8   14.80    1.30
   9  -8   8   10.70    0.90
  -8  -1   8    7.90    1.90
   0   0  -9 1179.48   42.30
   0   0  -9 1275.87   40.50
   0   0   9 1225.38   44.50
  -1   0  -9  434.16   18.70
   1  -1  -9  413.86   18.30
   0   1  -9  392.96   17.60
   1  -1  -9  433.56   16.60
  -1   0  -9  435.36   16.50
  -1   1   9  352.36   18.60
   0  -1   9  400.96   19.20
   0  -1   9  404.16   16.20
   1   0   9  430.06   20.70
   0  -1  -9  576.84   23.40
   0  -1  -9  561.04   21.10
   1   0  -9  566.24   22.90
  -1   1  -9  552.04   22.60
   1  -1   9  586.44   21.00
  -1   0   9  547.75   23.80
   0   1   9  582.54   25.40
  -1   0   9  557.44   21.10
   1  -1   9  586.54   25.40
  -1  -1  -9  540.65   20.80
   2  -1  -9  516.25   22.70
  -1   2  -9  539.95   21.80
  -1  -1  -9  551.84   23.30
  -2   1   9  566.14   21.20
   1   1   9  581.14   25.90
   1  -2   9  582.64   25.30
   1  -2   9  590.34   20.90
  -2  -1  -9   17.00    4.00
  -2  -1  -9   18.40    2.90
  -2  -1  -9   26.90    2.20
   3  -2  -9   23.50    2.20
  -1   3  -9   17.80    1.80
   3  -2  -9   19.00    2.00
   1  -3   9   22.10    3.50
   1  -3   9   19.40    4.20
   2   1   9   18.00    4.90
  -3   2   9   19.00    2.90
   1  -3   9   21.90    2.20
  -2   0  -9  145.29    9.70
   2  -2  -9  141.29    9.40
   0   2  -9  132.69    8.60
   2  -2  -9  150.88    8.20
  -2   0  -9  153.88    8.10
   0  -2   9  138.39   10.00
   0  -2   9  140.79    8.10
   2   0   9  132.89   10.90
   1  -2  -9   36.40    3.80
   1  -2  -9   40.30    4.90
  -2   1  -9   36.50    4.50
   1   1  -9   35.90    4.40
  -1  -1   9   43.60    4.00
   2  -1   9   31.40    5.40
  -1   2   9   33.00    5.00
  -2   2  -9   36.90    4.30
   0  -2  -9   40.50    5.00
   0  -2  -9   42.00    4.20
   2  -2   9   39.90    6.00
   0   2   9   45.50    6.10
  -2   0   9   43.80    4.20
   2  -2   9   39.20    3.90
   3  -1  -9  108.29    5.20
   3  -1  -9  114.59    6.20
  -1  -2  -9   93.69    5.20
  -1  -2  -9   93.19    7.90
  -1  -2  -9   93.09    5.10
   3  -1  -9   91.39    4.60
  -1  -2  -9   99.79    6.70
  -1  -2  -9   94.29    5.20
   2  -3   9   91.39    8.90
  -3   1   9  102.19    8.30
  -3   1   9  104.19    6.80
   2  -3   9   90.99    5.20
   1   2   9   95.09    9.30
  -2  -2  -9  110.59    7.30
  -2  -2  -9  112.99    4.60
   4  -2  -9  124.99    5.50
  -2  -2  -9  110.09    6.00
  -2  -2  -9  123.49    6.00
   4  -2  -9  117.69    6.00
  -2   4  -9  122.19    5.00
   4  -2  -9  126.79    7.30
  -2  -2  -9  120.89    6.10
   4  -2  -9  114.39    4.80
  -4   2   9  121.59    7.50
   2  -4   9  112.89    6.00
   2  -4   9  115.99    5.40
   5  -3  -9   26.50    3.80
  -3  -2  -9   24.60    2.70
  -2   5  -9   27.40    2.10
   5  -3  -9   23.00    2.30
  -3  -2  -9   21.60    2.90
   5  -3  -9   24.70    2.70
  -3  -2  -9   23.30    3.40
   5  -3  -9   24.40    1.90
   2  -5   9   32.30    2.80
   2  -5   9   24.00    2.70
  -3  -1  -9   14.40    2.50
  -1   4  -9   17.30    1.80
  -3  -1  -9   20.80    3.00
   4  -3  -9   19.70    2.00
  -3  -1  -9   20.20    2.50
   4  -3  -9   22.90    3.00
  -3  -1  -9   18.80    2.10
   4  -3  -9   22.70    2.40
  -4   3   9   22.30    3.20
   3   1   9   14.90    1.60
   1  -4   9   27.60    4.10
  -3   0  -9    2.90    1.00
   3  -3  -9    1.40    0.80
  -3   0  -9    2.70    2.00
  -3   0  -9    1.40    1.20
  -3   0  -9   -0.50    1.00
  -3   0  -9    1.30    0.90
   3  -3  -9    1.80    0.80
   0   3  -9    0.80    0.70
   3  -3  -9    1.30    1.60
   3  -3  -9    1.30    1.30
   0  -3   9    4.00    2.20
   3   0   9    0.00    0.80
   3   0   9    2.10    3.10
   1   2  -9  195.28    7.10
  -3   1  -9  214.88    9.40
  -3   1  -9  191.98   11.40
   2  -3  -9  163.38    8.50
   2  -3  -9  186.98    9.80
  -3   1  -9  192.68    7.60
   2  -3  -9  194.58    9.30
   2  -3  -9  192.18   11.50
  -1  -2   9  184.68    9.90
   3  -1   9  196.88   13.60
   1  -3  -9   96.19    7.80
   1  -3  -9   88.69    4.90
   1  -3  -9  101.19    5.70
   1  -3  -9  105.29    5.90
   2   1  -9   86.49    4.20
  -3   2  -9   93.79    5.20
  -3   2  -9   86.89    4.50
  -3   2  -9   80.69    6.80
   1  -3  -9   87.09    6.30
   3  -2   9   72.59    4.90
   3  -2   9   86.29    8.90
  -1   3   9   96.59    9.00
  -2  -1   9   98.39    6.70
  -2  -1   9   84.79    7.30
   3   0  -9   49.80    2.80
   0  -3  -9   52.79    3.60
   0  -3  -9   54.69    3.70
  -3   3  -9   52.89    3.20
   0  -3  -9   55.99    5.00
   3   0  -9   52.19    3.20
   0  -3  -9   51.39    5.90
   0  -3  -9   49.70    3.50
  -3   0   9   54.79    4.90
   3  -3   9   41.00    7.50
   0   3   9   46.60    6.70
   3  -3   9   46.40    3.90
  -3   0   9   47.90    5.80
   3  -3   9   48.70    3.50
  -1  -3  -9   65.49    4.80
  -3   4  -9   54.19    3.00
   4  -1  -9   59.39    3.80
  -3   4  -9   54.79    3.20
  -1  -3  -9   53.49    3.90
   4  -1  -9   61.89    4.80
   4  -1  -9   53.19    2.90
  -1  -3  -9   53.59    3.90
  -1  -3  -9   58.39    3.90
   4  -1  -9   54.09    3.30
  -1  -3  -9   51.69    2.70
  -1  -3  -9   52.59    5.00
  -4   1   9   54.89    5.00
   3  -4   9   52.89    3.60
   3  -4   9   50.99    3.90
  -2  -3  -9   62.49    4.30
   5  -2  -9   62.29    3.70
   5  -2  -9   61.69    5.40
  -2  -3  -9   60.99    3.00
  -2  -3  -9   61.79    4.20
   5  -2  -9   66.89    3.40
   5  -2  -9   65.59    4.30
  -2  -3  -9   60.59    5.30
  -3   5  -9   62.99    3.30
  -2  -3  -9   58.09    5.40
   3  -5   9   59.59    3.90
  -5   2   9   65.89    6.10
   3  -5   9   56.99    4.10
   6  -3  -9   12.30    1.90
   6  -3  -9    7.80    1.70
  -3   6  -9   14.00    1.70
  -3  -3  -9   10.20    1.50
  -3  -3  -9   11.60    2.90
  -3  -3  -9   11.80    2.10
  -3  -3  -9   13.30    2.80
  -3  -3  -9    7.90    2.00
   6  -3  -9   11.80    1.60
   3  -6   9   13.40    2.20
   3  -6   9   11.40    2.20
   7  -4  -9   55.69    4.80
   7  -4  -9   63.59    6.70
  -3   7  -9   61.69    3.30
   7  -4  -9   57.59    3.70
   7  -4  -9   61.29    3.20
  -4  -3  -9   55.39    5.10
  -4  -3  -9   51.69    4.00
  -4  -3  -9   59.49    4.10
   4   3   9   58.39    3.00
   3  -7   9   54.39    4.00
   3  -7   9   58.39    3.70
  -2   6  -9  216.58    7.70
   6  -4  -9  197.48    8.00
  -4  -2  -9  198.58    8.90
  -4  -2  -9  196.78   10.20
   6  -4  -9  198.08    8.80
   6  -4  -9  183.98    9.90
  -4  -2  -9  191.18    8.60
   6  -4  -9  204.48    7.30
  -4  -2  -9  190.78    9.00
   4   2   9  203.08    7.20
   2  -6   9  196.98    8.80
  -4  -1  -9    5.10    1.20
  -4  -1  -9    9.30    1.70
  -4  -1  -9    6.50    1.90
  -1   5  -9    7.80    1.40
   5  -4  -9    6.80    1.80
   5  -4  -9    7.00    2.30
   5  -4  -9    5.00    1.20
  -4  -1  -9    5.30    1.70
   1  -5   9    8.20    2.60
   4   1   9    4.70    1.10
   4  -4  -9   29.40    3.40
  -4   0  -9   22.80    2.70
   4  -4  -9   27.70    2.70
  -4   0  -9   22.80    2.70
  -4   0  -9   26.50    2.70
   0   4  -9   25.50    2.10
   4  -4  -9   27.00    2.30
  -4   0  -9   26.00    2.40
   0  -4   9   33.40    4.40
   4   0   9   22.90    1.90
  -4   1  -9   76.39    4.70
   3  -4  -9   80.39    5.60
   3  -4  -9   76.29    4.60
   3  -4  -9   81.79    6.00
   1   3  -9   79.49    3.80
  -4   1  -9   80.29    4.30
   4  -1   9   73.59    3.40
  -1  -3   9   91.39    6.80
   2  -4  -9   82.79    6.30
   2   2  -9   79.39    3.80
   2  -4  -9   76.59    4.60
   2  -4  -9   80.29    5.60
   2   2  -9   88.89    4.10
  -4   2  -9   78.39    4.30
  -4   2  -9   88.79    4.80
   2   2  -9   94.19    5.60
   2  -4  -9   80.59    4.70
  -2  -2   9   83.69    6.60
   4  -2   9   76.79    3.40
   4  -2   9   77.09    4.70
   3   1  -9  477.35   16.20
   1  -4  -9  476.55   18.80
   1  -4  -9  501.65   19.90
   1  -4  -9  469.25   16.80
   1  -4  -9  464.65   16.90
   3   1  -9  491.95   18.80
  -4   3  -9  485.75   16.40
   3   1  -9  497.55   16.90
   3   1  -9  499.15   15.70
   1  -4  -9  482.05   17.20
   4  -3   9  485.45   17.00
   4  -3   9  478.05   17.20
  -3  -1   9  510.15   19.90
   0  -4  -9   60.49    5.50
  -4   4  -9   57.99    3.60
   0  -4  -9   61.69    4.20
   0  -4  -9   58.49    4.00
  -4   4  -9   61.59    3.20
   4   0  -9   63.99    3.60
   0  -4  -9   61.59    5.20
   4   0  -9   69.89    5.40
   4   0  -9   57.49    3.20
   4   0  -9   73.99    4.10
   0  -4  -9   56.49    3.00
   0  -4  -9   61.89    4.10
   4  -4   9   57.79    4.10
  -4   0   9   58.39    5.50
   4  -4   9   57.79    4.00
  -1  -4  -9   60.59    4.10
   5  -1  -9   60.29    3.60
  -4   5  -9   62.79    3.30
  -1  -4  -9   53.79    5.20
  -1  -4  -9   55.19    5.40
   5  -1  -9   55.59    3.10
  -1  -4  -9   56.29    4.00
   5  -1  -9   60.29    4.10
  -1  -4  -9   59.39    4.20
   5  -1  -9   60.19    5.80
  -1  -4  -9   58.49    3.10
  -5   1   9   51.69    5.40
   4  -5   9   51.59    3.80
   4  -5   9   56.19    4.10
   6  -2  -9  205.18    9.10
  -2  -4  -9  203.08    8.80
  -2  -4  -9  196.38   10.90
  -2  -4  -9  204.28    8.90
   6  -2  -9  214.38   11.40
   6  -2  -9  201.08    8.20
  -4   6  -9  204.38    7.70
   6  -2  -9  210.28    7.60
  -2  -4  -9  204.08   10.70
  -2  -4  -9  200.28    7.30
  -2  -4  -9  201.68    8.80
   4  -6   9  196.08    8.60
   4  -6   9  197.68    8.80
  -3  -4  -9   67.49    5.60
   7  -3  -9   69.69    3.50
  -3  -4  -9   67.29    4.60
   7  -3  -9   72.69    5.40
  -4   7  -9   72.59    3.60
   7  -3  -9   72.29    3.60
   7  -3  -9   73.89    4.20
  -3  -4  -9   71.29    4.40
   7  -3  -9   80.19    7.10
   4  -7   9   71.89    4.60
   4  -7   9   68.69    4.20
   8  -4  -9    9.20    1.40
  -4  -4  -9    6.70    2.50
   8  -4  -9    5.00    1.40
  -4   8  -9    9.80    1.50
  -4  -4  -9    8.50    1.80
   8  -4  -9    6.70    1.10
   4  -8   9    9.60    1.90
   4   4   9    8.90    1.50
   4  -8   9    8.60    1.90
   4   4   9   12.70    1.60
  -4   9  -9   18.30    1.50
   9  -5  -9   21.00    2.30
  -5  -4  -9   15.80    2.40
   9  -5  -9   21.60    2.20
   9  -5  -9   15.60    1.50
   5   4   9   19.50    1.40
   4  -9   9   17.80    2.00
  -5  -3  -9   32.50    3.80
   8  -5  -9   34.90    3.00
   8  -5  -9   46.80    4.30
  -5  -3  -9   34.60    2.90
  -3   8  -9   37.60    2.40
   8  -5  -9   34.40    2.30
   5   3   9   36.60    2.20
   3  -8   9   35.80    3.10
   5   3   9   39.70    2.30
  -5  -2  -9  148.49    7.10
  -5  -2  -9  137.99    8.10
  -2   7  -9  154.38    6.00
   7  -5  -9  151.08    6.40
   7  -5  -9  155.28    5.80
   7  -5  -9  139.89    7.10
   2  -7   9  149.09    7.10
   5   2   9  151.58    5.60
   6  -5  -9  624.84   21.80
  -5  -1  -9  665.83   22.60
  -5  -1  -9  672.03   23.60
   6  -5  -9  661.43   21.20
  -1   6  -9  679.13   20.80
   1  -6   9  619.14   22.00
   5   1   9  653.93   20.40
   0   5  -9  186.78    7.20
  -5   0  -9  194.88    7.80
   5  -5  -9  189.48    8.10
  -5   0  -9  181.78    8.50
   5  -5  -9  172.98    7.60
   0  -5   9  183.68   10.10
   5   0   9  186.88    6.80
   0  -5   9  192.08    8.00
  -5   1  -9    9.00    1.70
   1   4  -9    9.20    1.50
   4  -5  -9   11.30    2.40
   5  -1   9    8.50    2.30
  -1  -4   9   11.10    3.00
   5  -1   9    8.60    1.30
   2   3  -9   26.50    2.10
   3  -5  -9   28.30    2.70
  -5   2  -9   27.90    2.60
   3  -5  -9   27.50    3.40
   3  -5  -9   27.50    3.70
   5  -2   9   27.00    2.90
   5  -2   9   27.30    1.90
  -2  -3   9   34.90    4.60
   2  -5  -9  400.06   17.10
  -5   3  -9  382.46   13.80
   2  -5  -9  388.56   15.90
   3   2  -9  392.96   16.30
   2  -5  -9  380.76   14.00
   2  -5  -9  390.16   14.50
   3   2  -9  398.16   13.10
   3   2  -9  370.96   13.90
   5  -3   9  396.86   12.60
  -3  -2   9  400.06   17.10
   5  -3   9  403.26   14.40
   5  -3   9  382.36   14.20
   4   1  -9 1246.98   38.40
   4   1  -9 1219.08   39.30
   4   1  -9 1297.57   38.10
   1  -5  -9 1239.78   39.80
   1  -5  -9 1226.88   39.30
   1  -5  -9 1323.87   43.20
   4   1  -9 1261.27   42.00
   4   1  -9 1286.47   37.90
   1  -5  -9 1190.48   37.40
  -5   4  -9 1212.08   38.60
   1  -5  -9 1270.97   41.80
   5  -4   9 1236.18   39.30
  -4  -1   9 1252.67   42.50
   5  -4   9 1233.88   37.40
   5  -4   9 1288.67   39.50
  -5   5  -9  117.29    5.50
  -5   5  -9  134.29    5.30
   0  -5  -9  124.99    5.00
   0  -5  -9  133.09    6.60
   5   0  -9  133.49    5.80
   5   0  -9  127.49    5.20
   0  -5  -9  127.99    6.70
   5   0  -9  132.89    6.50
   5   0  -9  131.99    5.40
   5   0  -9  125.09    8.60
   0  -5  -9  128.59    8.50
   0  -5  -9  130.09    8.10
   5  -5   9  121.89    6.30
   5  -5   9  122.49    6.30
   5  -5   9  121.59    4.80
  -5   0   9  121.89    8.20
   6  -1  -9   45.60    2.80
  -1  -5  -9   44.30    3.60
  -1  -5  -9   47.50    2.70
  -1  -5  -9   43.40    4.60
  -1  -5  -9   39.90    4.70
  -1  -5  -9   48.60    4.00
   6  -1  -9   48.30    4.00
  -5   6  -9   46.40    2.80
   6  -1  -9   47.90    3.20
   6  -1  -9   56.09    6.70
   6  -1  -9   46.00    2.80
   5  -6   9   45.00    3.60
   5  -6   9   44.80    3.70
  -2  -5  -9  138.59    8.20
   7  -2  -9  132.09    5.50
   7  -2  -9  148.99    8.80
   7  -2  -9  135.69    5.50
  -2  -5  -9  138.09    6.70
  -2  -5  -9  139.39    6.90
   7  -2  -9  142.59    7.20
  -2  -5  -9  140.69    5.40
  -5   7  -9  137.39    5.60
   7  -2  -9  129.89    6.00
   5  -7   9  138.39    6.60
   5  -7   9  132.69    6.50
   8  -3  -9   98.29    4.30
   8  -3  -9  109.69    5.80
   8  -3  -9   95.39    4.20
  -3  -5  -9   93.59    5.20
  -3  -5  -9  118.09    5.00
  -3  -5  -9  100.19    6.40
  -5   8  -9  107.39    4.40
   8  -3  -9   98.19    6.30
   8  -3  -9  103.49    5.00
   5  -8   9   99.69    5.20
   5  -8   9   99.29    5.10
  -4  -5  -9   81.39    5.00
   9  -4  -9   83.69    3.40
   9  -4  -9   86.59    4.10
   9  -4  -9   86.89    4.50
  -5   9  -9   89.69    3.60
   9  -4  -9   87.29    3.50
   5  -9   9   87.69    4.10
   5  -9   9   86.29    4.20
   4   5   9   92.99    3.40
  -3   9  -9   37.30    1.90
   9  -6  -9   35.60    2.50
   9  -6  -9   37.60    2.00
  -6  -3  -9   36.50    2.40
  -6  -3  -9   36.70    3.10
   6   3   9   40.40    1.90
   3  -9   9   37.30    2.60
  -6  -2  -9   29.30    3.40
  -6  -2  -9   30.20    2.70
  -2   8  -9   30.40    2.00
  -2   8  -9   31.50    2.00
   8  -6  -9   29.60    2.70
   8  -6  -9   25.70    1.90
   6   2   9   31.50    2.00
   2  -8   9   32.40    2.80
   6   2   9   31.10    2.20
  -1   7  -9   63.59    3.30
  -6  -1  -9   65.39    4.40
  -1   7  -9   59.69    3.20
   6   1   9   67.39    4.20
   1  -7   9   66.29    4.20
   6   1   9   63.19    3.10
  -6   0  -9   75.29    4.90
   0   6  -9   75.09    3.80
  -6   0  -9   77.69    4.20
   0   6  -9   78.59    3.80
   6   0   9   78.59    4.70
   6   0   9   75.99    3.50
   0  -6   9   90.59    4.40
  -6   1  -9   27.80    3.10
  -6   1  -9   27.60    2.60
   1   5  -9   26.10    2.10
   1   5  -9   27.50    2.20
   6  -1   9   28.00    2.90
  -1  -5   9   21.50    3.60
   6  -1   9   27.00    2.00
   2   4  -9   97.59    4.60
  -6   2  -9  103.39    5.30
   2   4  -9  106.39    4.70
  -6   2  -9  123.19    5.60
   6  -2   9  102.59    4.40
  -2  -4   9  101.79    7.50
   6  -2   9  102.99    5.60
   3   3  -9  142.19    5.80
   3   3  -9  141.49    5.80
   3   3  -9  148.29    8.00
   3  -6  -9  142.59    6.80
   3  -6  -9  140.19    6.90
   3  -6  -9  137.89    8.60
  -6   3  -9  137.39    6.40
   6  -3   9  142.99    5.40
   6  -3   9  146.39    6.90
  -3  -3   9  143.19    9.10
   4   2  -9  328.07   14.50
   4   2  -9  345.77   11.40
   2  -6  -9  335.17   13.00
   2  -6  -9  327.17   14.00
  -6   4  -9  342.27   12.20
   4   2  -9  338.47   11.40
   2  -6  -9  332.87   12.60
   6  -4   9  332.17   12.60
  -4  -2   9  333.77   15.30
   6  -4   9  319.67   10.90
   1  -6  -9  357.36   15.20
  -6   5  -9  370.26   13.00
   5   1  -9  372.56   12.40
   1  -6  -9  374.46   12.10
   5   1  -9  376.16   13.90
   5   1  -9  363.46   12.70
   1  -6  -9  366.96   14.10
   5   1  -9  367.26   16.00
   1  -6  -9  362.16   13.80
   5   1  -9  377.26   12.40
   1  -6  -9  383.86   16.80
  -5  -1   9  374.66   16.30
   6  -5   9  367.96   12.00
   6  -5   9  386.16   13.80
   0  -6  -9   49.90    4.10
   6   0  -9   52.59    3.00
   6   0  -9   57.09    3.40
   6   0  -9   49.20    5.60
  -6   6  -9   49.80    2.90
   0  -6  -9   49.70    4.70
   6   0  -9   55.29    3.10
   0  -6  -9   60.19    3.10
   6   0  -9   55.39    4.50
   0  -6  -9   52.99    4.30
   6  -6   9   54.89    2.70
   6  -6   9   55.79    4.00
   6  -6   9   51.19    3.60
  -6   7  -9   11.50    1.50
  -1  -6  -9    9.90    2.60
   7  -1  -9   12.10    1.60
  -1  -6  -9   18.10    1.90
   7  -1  -9   13.90    2.00
   7  -1  -9   11.80    1.60
  -1  -6  -9   13.90    2.90
   7  -1  -9   17.00    3.50
  -1  -6  -9   12.00    2.30
   6  -7   9   10.80    1.90
   6  -7   9   11.60    2.20
  -2  -6  -9   73.89    4.20
   8  -2  -9   74.89    3.90
   8  -2  -9   71.69    3.40
   8  -2  -9   77.59    4.90
  -2  -6  -9   69.19    5.10
   8  -2  -9   72.19    3.40
  -2  -6  -9   76.99    4.50
  -6   8  -9   71.49    3.40
  -2  -6  -9   74.19    3.30
   6  -8   9   74.29    4.20
   6  -8   9   68.09    3.90
   9  -3  -9    8.20    1.10
   9  -3  -9   10.90    1.80
   9  -3  -9    9.10    1.90
  -3  -6  -9    9.00    1.90
  -6   9  -9    9.40    1.20
   9  -3  -9    6.40    1.10
   6  -9   9    8.20    1.30
   3   6   9   11.60    1.30
   6  -9   9    9.40    1.60
  -7  -2  -9   28.40    2.20
   7   2   9   29.70    1.50
   2  -9   9   30.40    2.20
  -1   8  -9   67.69    3.00
  -1   8  -9   67.59    3.00
  -7  -1  -9   68.09    3.90
   1  -8   9   71.99    3.80
   7   1   9   71.99    2.90
   0   7  -9   66.79    3.20
  -7   0  -9   67.69    3.50
  -7   0  -9   65.59    4.20
   0   7  -9   70.19    3.20
   7   0   9   68.59    3.10
  -7   1  -9  116.09    5.30
   1   6  -9  115.29    4.80
  -7   1  -9  112.49    5.90
   1   6  -9  114.29    4.70
   7  -1   9  118.29    4.60
   7  -1   9  111.89    5.50
  -7   2  -9   28.50    2.70
   2   5  -9   25.70    2.20
   2   5  -9   24.00    1.90
  -7   2  -9   24.40    2.70
   7  -2   9   24.10    2.70
   7  -2   9   23.30    1.90
  -7   3  -9    3.00    1.10
   3   4  -9    4.20    1.00
   3   4  -9    3.50    1.10
   7  -3   9    3.00    1.10
   7  -3   9    3.30    0.90
   4   3  -9   23.80    2.10
  -7   4  -9   22.20    2.40
   4   3  -9   22.40    1.90
   3  -7  -9   15.90    2.80
   3  -7  -9   18.70    2.70
   7  -4   9   23.70    1.80
   7  -4   9   24.10    2.70
   2  -7  -9   17.70    2.80
   2  -7  -9   15.70    3.00
   5   2  -9   21.30    3.40
   2  -7  -9   19.70    2.00
   5   2  -9   22.30    1.90
  -7   5  -9   21.50    2.20
   5   2  -9   23.30    2.00
   7  -5   9   23.20    1.80
   7  -5   9   22.00    2.60
   1  -7  -9    3.30    1.10
   6   1  -9    0.40    1.20
   1  -7  -9    0.30    1.10
   6   1  -9    3.00    0.90
   1  -7  -9   -0.40    1.40
  -7   6  -9    3.00    1.00
  -7   6  -9    2.30    1.40
   6   1  -9    2.80    1.00
   7  -6   9    4.80    1.40
   7  -6   9    2.90    0.90
   7   0  -9    7.30    1.30
   0  -7  -9    4.50    1.60
   7   0  -9    8.20    1.40
   7   0  -9    2.80    1.30
   7   0  -9    7.10    1.50
   0  -7  -9    5.20    1.40
  -7   7  -9    5.10    1.00
   7  -7   9    7.40    1.20
   7  -7   9    6.80    1.90
  -7   8  -9   57.19    2.80
   8  -1  -9   60.99    3.90
  -1  -7  -9   57.19    4.70
  -1  -7  -9   62.89    4.00
  -1  -7  -9   60.39    3.70
   8  -1  -9   59.19    2.80
   8  -1  -9   58.29    3.20
  -1  -7  -9   68.29    2.90
   8  -1  -9   59.99    2.80
   7  -8   9   62.59    3.60
  -8   1   9   58.59    4.90
   9  -2  -9  101.79    3.80
   9  -2  -9  117.99    5.10
  -2  -7  -9   96.49    5.70
   9  -2  -9  103.89    4.60
  -7   9  -9  105.39    3.90
   7  -9   9  100.99    4.30
  -8   0  -9   12.00    1.70
   0   8  -9   11.80    1.10
   8   0   9   13.30    1.10
  -8   1  -9   76.69    3.50
   1   7  -9   67.49    2.90
  -8   1  -9   67.69    3.80
   1   7  -9   70.39    3.10
   8  -1   9   76.49    3.10
   2   6  -9   12.60    1.40
   2   6  -9   10.10    1.40
  -8   2  -9   10.20    1.70
  -8   2  -9   10.20    1.90
   8  -2   9   11.70    1.40
  -8   3  -9   65.79    3.70
   3   5  -9   61.49    3.00
   3   5  -9   67.09    3.20
   8  -3   9   66.09    3.00
   8  -3   9   61.99    3.50
   4  -8  -9   15.80    2.10
   4   4  -9   18.50    1.80
   4   4  -9   16.90    1.60
  -8   4  -9   16.20    2.00
   8  -4   9   17.10    1.50
   8  -4   9   16.00    2.10
   5   3  -9   33.30    2.20
  -8   5  -9   30.00    2.50
   3  -8  -9   28.50    2.90
   3  -8  -9   31.90    2.10
   3  -8  -9   25.00    3.00
   5   3  -9   31.90    2.00
  -5  -3   9   31.60    4.00
   8  -5   9   29.50    1.90
   8  -5   9   32.80    2.70
   2  -8  -9   26.40    2.90
   6   2  -9   29.60    1.90
  -8   6  -9   28.40    2.30
   2  -8  -9   32.90    2.20
   6   2  -9   29.10    2.10
   2  -8  -9   20.40    3.00
   8  -6   9   30.10    1.80
  -6  -2   9   30.20    4.00
   8  -6   9   27.90    2.50
   7   1  -9   14.90    1.50
   7   1  -9   14.00    1.40
   1  -8  -9    9.30    1.80
   1  -8  -9   20.40    1.80
   1  -8  -9   10.00    2.10
  -7  -1   9   13.80    3.10
   8  -7   9   14.00    1.30
   8  -7   9   12.20    1.80
   0  -8  -9   14.60    2.00
   0  -8  -9   17.80    2.50
   0  -8  -9   19.70    1.50
   8   0  -9   15.70    1.30
   8   0  -9   15.50    1.20
  -8   8  -9   15.80    1.20
   8  -8   9   16.20    1.20
  -8   0   9   13.50    2.50
   8  -8   9   14.00    1.60
   2   7  -9   40.50    2.40
  -9   2  -9   52.09    3.10
   9  -2   9   42.70    1.90
   3   6  -9   83.19    3.30
  -9   3  -9   85.69    3.70
   9  -3   9   81.89    3.10
   4   5  -9   20.10    1.60
  -9   4  -9   19.50    1.80
   9  -4   9   19.00    1.30
  -9   5  -9   14.90    1.60
   5   4  -9   11.90    1.30
   4  -9  -9    8.50    1.80
   9  -5   9   10.70    1.20
   3  -9  -9  117.69    5.10
   6   3  -9  114.89    4.30
   3  -9  -9  117.29    5.10
  -9   6  -9  114.39    4.50
   3  -9  -9  119.89    4.50
  -6  -3   9  110.29    5.60
   9  -6   9  118.09    5.20
   9  -6   9  118.69    4.10
   7   2  -9   39.20    2.00
   2  -9  -9   35.30    2.50
   2  -9  -9   37.30    2.80
  -7  -2   9   37.80    3.10
   9  -7   9   38.80    1.80
   0   0 -10    0.00    1.30
   0   0 -10   -0.50    0.80
   0   0 -10   -0.20    0.60
   0   0  10    0.90    2.20
   0   1 -10  367.56   13.70
   0   1 -10  344.87   12.60
  -1   0 -10  383.56   14.00
  -1   0 -10  377.76   15.60
   1  -1 -10  394.06   14.90
   1  -1 -10  348.27   17.40
  -1   0 -10  375.36   12.90
   1  -1 -10  375.06   12.80
  -1   0 -10  366.36   13.30
   1  -1 -10  358.86   13.40
  -1   0 -10  352.86   17.50
   0   1 -10  326.17   16.50
   0  -1  10  403.66   16.00
   0  -1  10  340.87   18.50
   1   0  10  356.16   19.60
   0  -1 -10  118.49    7.50
   0  -1 -10  117.79    5.40
   0  -1 -10  125.49    5.90
   1   0 -10  112.59    5.30
   0  -1 -10  124.09    6.30
  -1   1 -10  112.99    5.40
   1   0 -10  134.79    5.80
   0  -1 -10  117.49    8.90
  -1   1 -10  112.49    8.40
   1   0 -10  114.39    8.60
  -1   1 -10  119.89    6.30
   1  -1  10  115.39    7.30
   1  -1  10  116.69   10.10
  -1   0  10  120.99    7.60
   0   1  10  111.99   10.00
  -1  -1 -10  116.59    5.90
  -1  -1 -10  125.69    7.70
  -1   2 -10  116.09    5.40
  -1   2 -10  111.59    4.90
   2  -1 -10  123.79    5.90
  -1  -1 -10  121.59    6.30
   2  -1 -10  119.19    5.50
  -1  -1 -10  118.39    6.10
   2  -1 -10  136.09    7.00
  -1  -1 -10  117.19    5.50
   1  -2  10  117.59   10.20
   1  -2  10  112.69    7.40
  -2   1  10  123.59    7.80
  -2  -1 -10   84.89    4.50
  -1   3 -10   88.79    4.00
  -2  -1 -10   95.39    5.30
   3  -2 -10   87.19    4.50
  -2  -1 -10   80.89    5.00
   3  -2 -10   98.79    6.30
  -2  -1 -10   80.39    6.10
  -2  -1 -10   82.29    5.10
   3  -2 -10   87.39    5.10
  -1   3 -10   83.29    4.20
   1  -3  10   86.09    5.00
   1  -3  10   95.99    6.90
  -3   2  10   87.79    6.50
   0   2 -10  204.68    7.40
  -2   0 -10  204.78    8.60
   2  -2 -10  204.88    8.00
  -2   0 -10  195.58    8.00
  -2   0 -10  199.88    8.90
  -2   0 -10  205.38    8.60
   2  -2 -10  217.68   10.00
  -2   0 -10  209.08   10.30
   2  -2 -10  192.08    8.50
   2  -2 -10  187.78    8.50
   0   2 -10  198.88    7.80
   0  -2  10  200.88    8.60
   0  -2  10  198.98   10.50
   1   1 -10   76.59    3.50
  -2   1 -10   67.89    4.70
   1  -2 -10   74.69    4.00
   1  -2 -10   74.79    4.50
   1  -2 -10   74.49    4.50
  -2   1 -10   76.59    6.90
   1   1 -10   71.29    3.90
   1  -2 -10   82.39    6.10
  -2   1 -10   71.59    4.00
   1   1 -10   78.19    6.90
  -1  -1  10   79.39    6.10
   2  -1  10   63.09    4.40
  -1   2  10   66.49    7.60
   2  -1  10   75.19    5.70
   0  -2 -10  347.17   13.50
   2   0 -10  356.86   12.70
   2   0 -10  367.16   13.40
   0  -2 -10  366.06   13.60
   0  -2 -10  341.67   13.10
   2   0 -10  375.76   14.90
   0  -2 -10  360.66   14.90
  -2   2 -10  355.26   12.70
  -2   2 -10  369.56   12.90
   0  -2 -10  377.36   12.70
   2   0 -10  354.16   11.90
   0  -2 -10  362.66   15.80
  -2   2 -10  378.46   13.90
  -2   0  10  374.86   15.90
   2  -2  10  378.06   15.20
   2  -2  10  342.37   13.00
  -1  -2 -10  362.16   13.80
   3  -1 -10  362.86   15.20
  -1  -2 -10  387.46   16.20
  -2   3 -10  363.56   12.10
  -2   3 -10  347.87   12.70
  -1  -2 -10  374.66   15.30
  -1  -2 -10  373.86   12.80
  -1  -2 -10  361.76   13.80
   3  -1 -10  354.96   12.80
  -1  -2 -10  368.66   13.60
   3  -1 -10  356.96   12.00
   3  -1 -10  372.46   13.70
  -3   1  10  376.66   16.10
   2  -3  10  357.76   13.00
   2  -3  10  365.16   13.90
  -2   4 -10   37.70    2.60
   4  -2 -10   38.40    3.30
   4  -2 -10   35.80    2.30
   4  -2 -10   36.50    4.20
  -2  -2 -10   38.40    3.60
  -2  -2 -10   35.80    2.70
   4  -2 -10   36.50    2.80
  -2  -2 -10   36.10    3.40
  -2  -2 -10   44.10    3.40
  -2  -2 -10   33.20    4.00
   2  -4  10   46.30    2.80
   2  -4  10   32.40    3.30
  -4   2  10   38.60    4.30
   5  -3 -10   43.90    3.20
   5  -3 -10   44.40    3.70
  -2   5 -10   50.69    3.00
  -3  -2 -10   52.39    3.70
   5  -3 -10   47.60    2.80
  -3  -2 -10   46.90    3.90
  -3  -2 -10   39.40    3.80
  -3  -2 -10   42.00    4.40
   5  -3 -10   42.50    4.90
   2  -5  10   44.90    3.70
   3   2  10   43.50    2.60
  -3  -1 -10  107.09   10.00
  -3  -1 -10  105.89    5.10
   4  -3 -10  101.59    5.70
  -3  -1 -10   98.99    5.70
  -3  -1 -10  108.79    5.90
  -3  -1 -10   97.39    5.60
  -1   4 -10  103.09    4.60
   4  -3 -10  104.39    5.10
   4  -3 -10   99.19    6.70
   3   1  10   97.99    4.20
   1  -4  10  104.89    5.50
  -4   3  10  105.39    7.20
   1  -4  10  102.89    7.30
   3  -3 -10   72.89    4.60
  -3   0 -10   77.99    4.60
  -3   0 -10   71.39    4.80
  -3   0 -10   73.09    4.70
   3  -3 -10   68.79    4.00
   0   3 -10   73.19    3.70
  -3   0 -10   74.69    4.20
   0   3 -10   78.49    3.80
   3  -3 -10   72.99    5.60
   0  -3  10   85.59    6.80
   3   0  10   71.99    3.30
   0  -3  10   84.79    4.40
   2  -3 -10   16.10    2.20
   2  -3 -10   19.70    2.00
   2  -3 -10   18.20    2.90
   2  -3 -10   17.60    2.40
  -3   1 -10   16.70    2.00
  -3   1 -10   13.20    2.40
   1   2 -10   16.50    1.90
   1   2 -10   15.40    1.60
   2  -3 -10   20.50    3.20
   3  -1  10   11.70    2.40
  -1  -2  10   15.30    3.60
   2   1 -10  376.96   15.30
  -3   2 -10  403.76   14.60
  -3   2 -10  392.56   13.70
   2   1 -10  399.26   13.90
   1  -3 -10  373.36   14.20
   2   1 -10  377.56   13.30
   1  -3 -10  393.36   16.70
   2   1 -10  391.16   12.80
   1  -3 -10  380.76   14.10
   1  -3 -10  364.16   15.70
   1  -3 -10  371.26   13.10
  -3   2 -10  370.86   13.40
   1  -3 -10  372.66   14.10
   3  -2  10  373.26   13.90
  -2  -1  10  414.66   17.00
   0  -3 -10  159.58    7.50
   0  -3 -10  157.08    7.40
   0  -3 -10  163.48    7.70
   3   0 -10  170.08    8.80
   3   0 -10  166.18    6.30
   3   0 -10  157.48    6.80
  -3   3 -10  158.18    6.80
   3   0 -10  173.28    7.40
   0  -3 -10  158.08    8.90
   0  -3 -10  158.08    9.40
   3  -3  10  159.38    7.30
  -3   0  10  172.78    9.70
   3  -3  10  163.08    7.80
  -3   4 -10   27.00    2.10
  -1  -3 -10   25.80    2.80
   4  -1 -10   26.10    2.10
  -1  -3 -10   26.10    3.70
  -1  -3 -10   27.10    1.90
   4  -1 -10   28.30    2.50
   4  -1 -10   30.70    2.90
  -1  -3 -10   30.40    3.10
   4  -1 -10   29.20    3.80
  -1  -3 -10   25.90    3.80
  -1  -3 -10   30.00    3.20
  -3   4 -10   25.70    2.30
  -4   1  10   25.80    3.80
   3  -4  10   24.90    2.60
   3  -4  10   25.50    3.00
  -3   5 -10   77.79    3.80
  -2  -3 -10   80.49    4.90
  -2  -3 -10   76.09    6.20
  -2  -3 -10   77.39    3.50
   5  -2 -10   77.29    4.90
  -2  -3 -10   75.69    6.10
   5  -2 -10   81.59    6.70
  -2  -3 -10   82.69    5.20
  -2  -3 -10   77.99    5.00
   5  -2 -10   75.49    4.30
   5  -2 -10   79.49    3.80
   3  -5  10   74.09    4.50
   3  -5  10   76.89    4.90
   6  -3 -10  134.29    5.40
  -3   6 -10  130.79    5.50
  -3  -3 -10  131.79    8.20
  -3  -3 -10  140.99    6.60
   6  -3 -10  137.89    6.10
  -3  -3 -10  132.89    6.70
   6  -3 -10  125.79    6.70
   6  -3 -10  131.89    8.80
  -3  -3 -10  130.19    6.70
   3  -6  10  127.09    6.10
   3  -6  10  139.89    6.90
   7  -4 -10   30.00    2.80
   7  -4 -10   41.60    6.00
   7  -4 -10   34.80    2.30
   7  -4 -10   27.90    3.60
  -4  -3 -10   35.00    3.00
  -4  -3 -10   34.10    4.10
  -4  -3 -10   29.20    3.10
  -3   7 -10   37.20    2.40
   4   3  10   35.10    2.20
   3  -7  10   33.80    3.10
   6  -4 -10    0.20    0.80
  -4  -2 -10    0.10    0.90
  -4  -2 -10   -1.80    1.00
  -2   6 -10    0.50    0.80
  -4  -2 -10   -0.30    1.30
   6  -4 -10   -1.60    1.60
   6  -4 -10   -0.70    0.90
  -4  -2 -10    0.90    1.00
   6  -4 -10   -1.30    1.00
   4   2  10    1.00    0.90
   2  -6  10    0.70    0.90
   5  -4 -10  100.89    5.00
   5  -4 -10  103.29    5.70
  -4  -1 -10  104.09    5.90
   5  -4 -10   98.29    6.80
  -1   5 -10  109.79    4.80
  -4  -1 -10   97.59    5.60
  -4  -1 -10  101.49    5.70
  -4  -1 -10  112.49    5.20
   1  -5  10  105.29    5.70
   4   1  10  107.89    4.40
  -4   0 -10   69.09    4.60
   4  -4 -10   68.39    4.50
  -4   0 -10   66.09    4.60
   4  -4 -10   71.99    4.00
  -4   0 -10   73.09    4.20
   0   4 -10   69.79    3.60
   4  -4 -10   68.19    5.50
  -4   4  10   75.69    5.90
   0  -4  10   80.19    6.70
   4   0  10   67.49    3.20
  -4   1 -10  125.79    6.40
   3  -4 -10  110.49    7.60
  -4   1 -10  132.49    6.10
   3  -4 -10  121.89    6.30
  -4   1 -10  116.59    5.70
   3  -4 -10  114.89    7.30
   1   3 -10  126.39    5.20
   3  -4 -10  117.59    5.40
   4  -1  10  122.59    6.40
   4  -1  10  111.39    4.60
  -1  -3  10  128.79    8.60
   2   2 -10  165.48    8.60
   2  -4 -10  165.38    9.70
   2  -4 -10  165.28    7.70
  -4   2 -10  167.38    7.20
   2   2 -10  163.58    6.80
  -4   2 -10  187.78    7.40
   2  -4 -10  167.78    7.80
   2  -4 -10  164.08    9.00
   2   2 -10  174.58    6.60
   4  -2  10  166.08    6.00
  -2  -2  10  178.28   10.30
   4  -2  10  164.38    7.60
   1  -4 -10  378.76   15.80
   3   1 -10  380.66   13.60
   3   1 -10  373.26   15.50
   1  -4 -10  365.26   14.00
  -4   3 -10  355.36   13.10
   1  -4 -10  366.06   13.80
   1  -4 -10  359.46   13.50
   3   1 -10  361.46   12.90
   3   1 -10  380.86   12.50
   1  -4 -10  386.16   16.70
  -3  -1  10  369.96   16.50
   4  -3  10  365.06   13.70
   4  -3  10  364.66   13.90
   4   0 -10   38.40    2.50
   0  -4 -10   37.10    3.40
   0  -4 -10   38.90    3.30
  -4   4 -10   36.00    2.80
   0  -4 -10   36.50    3.70
   4   0 -10   42.10    4.80
   4   0 -10   40.20    2.90
   0  -4 -10   34.40    4.40
   4   0 -10   45.90    3.30
   0  -4 -10   35.30    4.30
  -4   0  10   33.10    4.70
   4  -4  10   35.40    3.30
   4  -4  10   36.80    3.20
  -1  -4 -10   75.59    5.10
  -1  -4 -10   68.49    4.60
  -4   5 -10   70.59    3.50
   5  -1 -10   73.19    3.70
  -1  -4 -10   68.29    6.00
   5  -1 -10   77.09    6.60
   5  -1 -10   69.49    4.00
  -1  -4 -10   68.69    4.50
   5  -1 -10   67.99    4.50
  -1  -4 -10   71.09    3.40
  -1  -4 -10   67.39    5.90
   4  -5  10   67.09    4.30
   4  -5  10   65.59    4.40
  -5   1  10   56.79    6.00
   6  -2 -10  342.27   13.50
  -2  -4 -10  360.56   13.60
  -2  -4 -10  350.26   13.40
  -4   6 -10  366.96   12.20
   6  -2 -10  369.36   12.20
  -2  -4 -10  358.36   15.60
   6  -2 -10  345.77   12.70
   6  -2 -10  370.46   15.90
  -2  -4 -10  364.76   11.80
  -2  -4 -10  374.16   13.70
   4  -6  10  363.76   13.70
   4  -6  10  363.66   13.20
  -3  -4 -10   27.30    2.70
  -3  -4 -10   25.70    3.30
  -3  -4 -10   26.70    3.60
   7  -3 -10   26.60    2.60
   7  -3 -10   32.10    2.30
  -3  -4 -10   36.60    2.80
   7  -3 -10   29.20    3.70
  -4   7 -10   30.30    2.20
   4  -7  10   30.20    2.90
   4  -7  10   29.20    2.70
  -4  -4 -10   60.09    3.50
   8  -4 -10   60.79    3.50
  -4   8 -10   62.99    3.00
   8  -4 -10   73.59    4.70
  -4  -4 -10   57.09    4.60
   8  -4 -10   58.59    2.90
  -4  -4 -10   54.29    3.50
   4   4  10   60.79    2.80
   4  -8  10   60.49    3.30
   4  -8  10   62.49    3.80
  -5  -4 -10   64.69    3.90
  -4   9 -10   71.39    2.80
   4  -9  10   65.69    3.30
   5   4  10   73.09    2.60
  -5  -3 -10   10.00    1.80
  -5  -3 -10    7.40    2.30
   8  -5 -10    5.70    0.90
   8  -5 -10   16.30    3.20
   8  -5 -10    4.30    1.30
  -3   8 -10    8.00    1.30
   5   3  10    9.90    1.30
   3  -8  10    7.40    1.80
   5   3  10   13.90    2.30
  -2   7 -10   79.89    3.70
   7  -5 -10   72.39    5.00
  -5  -2 -10   73.79    5.50
   7  -5 -10   70.49    3.90
  -5  -2 -10   80.39    4.70
   7  -5 -10   74.69    3.40
   5   2  10   73.79    3.30
   2  -7  10   74.49    4.50
   5  -5 -10   93.79    5.30
  -5   0 -10  100.89    4.90
   0   5 -10  100.19    4.50
  -5   0 -10   95.79    5.60
   5  -5 -10   93.49    4.60
   5  -5 -10   91.09    6.30
   5   0  10  105.79    5.70
   5   0  10   97.59    4.10
  -5   1 -10   72.79    4.70
   4  -5 -10   74.69    4.50
   4  -5 -10   75.79    5.60
  -5   1 -10   74.19    4.30
   1   4 -10   79.59    3.80
  -1  -4  10   73.99    6.40
   5  -1  10   74.79    3.40
   5  -1  10   73.59    4.80
  -5   2 -10   62.29    3.80
   3  -5 -10   57.09    4.10
   3  -5 -10   55.29    5.00
   3  -5 -10   58.09    4.00
   2   3 -10   62.29    3.40
   3  -5 -10   58.79    5.40
   5  -2  10   60.19    2.90
  -2  -3  10   58.59    5.90
   5  -2  10   59.59    4.20
  -5   3 -10  182.98    7.70
   3   2 -10  174.28    9.50
   2  -5 -10  179.88    8.00
   2  -5 -10  181.78    9.60
   3   2 -10  198.08    7.10
   2  -5 -10  186.88   10.50
   2  -5 -10  178.78    8.30
   5  -3  10  179.68    8.10
  -3  -2  10  181.28   10.50
   5  -3  10  175.18    6.50
   5  -3  10  189.28    8.30
   1  -5 -10  129.79    7.90
   1  -5 -10  123.69    6.40
   1  -5 -10  128.89    8.60
   1  -5 -10  124.09    6.70
   4   1 -10  126.39    5.60
  -5   4 -10  124.49    5.80
   4   1 -10  145.39    6.30
   4   1 -10  117.79    8.30
   4   1 -10  137.49    5.50
  -4  -1  10  128.19    8.60
   5  -4  10  127.89    6.40
   5  -4  10  124.69    6.40
   0  -5 -10  372.36   14.20
   0  -5 -10  358.76   16.60
   0  -5 -10  377.66   15.80
  -5   5 -10  376.76   12.40
   5   0 -10  389.66   14.00
   5   0 -10  381.56   13.10
   0  -5 -10  386.06   14.00
   5   0 -10  399.06   16.70
   5   0 -10  390.36   12.60
   0  -5 -10  368.86   12.00
  -5   5 -10  357.86   12.80
   5  -5  10  371.56   13.70
   5  -5  10  358.26   13.60
  -5   0  10  316.67   15.70
  -1  -5 -10   16.40    2.50
   6  -1 -10   19.80    3.20
  -1  -5 -10   20.20    1.90
  -5   6 -10   16.60    1.80
  -1  -5 -10   19.40    3.40
   6  -1 -10   16.50    1.80
  -1  -5 -10   13.40    3.00
   6  -1 -10   16.20    2.10
   5  -6  10   13.80    2.10
   5  -6  10   16.10    2.50
  -2  -5 -10  171.78    7.60
  -5   7 -10  167.08    6.40
  -2  -5 -10  166.88    9.10
  -2  -5 -10  173.08    7.80
   7  -2 -10  170.78    7.00
   7  -2 -10  181.98    8.20
   7  -2 -10  186.38    9.80
   7  -2 -10  176.28    6.50
   5  -7  10  179.98    7.50
   5  -7  10  166.38    7.40
   8  -3 -10    8.80    2.70
   8  -3 -10    6.80    1.10
   8  -3 -10    6.50    1.30
  -3  -5 -10    5.80    1.50
  -5   8 -10    7.30    1.30
   3   5  10    9.30    1.40
   5  -8  10    6.90    1.60
   5  -8  10    8.00    1.80
   9  -4 -10   75.29    3.00
  -4  -5 -10   75.79    4.30
   4   5  10   81.09    2.90
   5  -9  10   73.89    3.90
   8  -6 -10    3.40    1.40
  -6  -2 -10    4.20    1.00
  -6  -2 -10    7.70    2.00
  -2   8 -10    4.40    0.80
   2  -8  10    5.80    1.60
   6   2  10    7.80    1.10
  -6  -1 -10   76.59    4.50
  -1   7 -10   78.59    3.60
   6   1  10   83.59    3.50
   6   1  10   80.19    4.40
   1  -7  10   81.79    4.50
  -6   0 -10   21.80    2.20
   0   6 -10   22.20    1.90
  -6   0 -10   20.60    2.60
   6   0  10   23.50    2.80
   6   0  10   22.00    1.80
   1   5 -10   21.30    2.00
  -6   1 -10   18.60    2.50
  -6   1 -10   20.20    2.30
   6  -1  10   20.70    1.70
   6  -1  10   22.20    2.80
  -6   2 -10   27.30    2.60
   2   4 -10   26.10    2.10
   6  -2  10   30.50    3.10
   6  -2  10   24.90    1.90
   3   3 -10  134.79    5.50
  -6   3 -10  127.39    6.00
   3  -6 -10  124.09    6.50
   6  -3  10  132.19    5.10
   6  -3  10  137.69    6.60
   2  -6 -10  227.18    9.40
  -6   4 -10  229.78    8.80
   2  -6 -10  217.78   10.50
   4   2 -10  224.58    8.00
   4   2 -10  228.38    8.20
   4   2 -10  216.28   10.90
   2  -6 -10  220.28    9.60
   6  -4  10  232.18    9.40
   6  -4  10  222.48    7.70
  -6   5 -10   60.39    3.60
   5   1 -10   59.99    4.20
   5   1 -10   60.59    3.10
   1  -6 -10   62.59    3.10
   1  -6 -10   58.49    4.60
   5   1 -10   64.09    3.20
   5   1 -10   65.09    3.40
   5   1 -10   47.00    5.50
   1  -6 -10   61.59    5.10
   1  -6 -10   58.89    4.50
   6  -5  10   59.59    2.80
   6  -5  10   64.29    4.20
   6   0 -10   55.09    4.20
   6   0 -10   60.39    3.10
   6   0 -10   58.69    3.30
   0  -6 -10   59.29    4.30
   6   0 -10   53.79    5.80
   6   0 -10   64.59    3.20
  -6   6 -10   55.19    2.90
   0  -6 -10   57.29    4.90
   0  -6 -10   67.59    3.10
   0  -6 -10   59.09    4.60
   6  -6  10   59.69    4.00
   6  -6  10   55.49    3.60
   7  -1 -10   17.00    4.00
   7  -1 -10   16.10    1.60
  -1  -6 -10   21.30    3.30
   7  -1 -10   18.00    2.00
  -1  -6 -10   14.90    2.40
   7  -1 -10   21.50    3.20
   7  -1 -10   16.10    1.60
  -6   7 -10   15.20    1.60
  -1  -6 -10   21.80    1.90
  -1  -6 -10   13.10    2.70
   6  -7  10   14.70    1.90
   6  -7  10   18.30    2.40
   8  -2 -10    1.90    1.20
  -2  -6 -10    5.30    1.60
  -6   8 -10    0.30    0.60
  -2  -6 -10    0.40    0.70
  -2  -6 -10    1.00    1.30
   8  -2 -10    2.20    1.00
   8  -2 -10    0.10    0.60
   6  -8  10    0.50    0.80
  -1   8 -10   21.20    1.40
  -7  -1 -10   20.70    2.00
   7   1  10   20.50    1.40
  -7   0 -10    3.60    1.00
   0   7 -10    3.60    0.80
   7   0  10    5.90    1.00
   1   6 -10   11.20    1.40
   1   6 -10   11.00    1.40
  -7   1 -10   12.20    1.80
  -7   1 -10   10.30    2.00
   7  -1  10   11.40    2.00
   7  -1  10   11.30    1.40
  -7   2 -10   73.79    4.40
   2   5 -10   74.89    3.50
  -7   2 -10   77.29    4.10
   2   5 -10   74.39    3.50
   7  -2  10   79.59    3.40
   7  -2  10   79.79    4.40
   3   4 -10   72.09    3.50
   3   4 -10   72.79    3.50
  -7   3 -10   76.59    4.10
   7  -3  10   74.69    4.30
   7  -3  10   71.89    3.20
   3  -7 -10  197.68    8.20
   4   3 -10  195.28    7.10
  -7   4 -10  199.48    7.80
   3  -7 -10  185.78    8.20
   4   3 -10  200.18    7.10
   7  -4  10  197.88    8.10
   7  -4  10  196.58    6.80
   5   2 -10   59.59    3.00
   5   2 -10   56.79    4.80
   2  -7 -10   52.99    4.20
   5   2 -10   56.69    3.00
   2  -7 -10   56.99    4.20
  -7   5 -10   61.79    3.50
   7  -5  10   61.29    3.90
   7  -5  10   59.89    2.70
   6   1 -10   99.59    5.30
  -7   6 -10  119.39    5.40
   1  -7 -10  111.89    5.90
   6   1 -10  112.89    4.50
   6   1 -10  119.09    4.60
   1  -7 -10  112.09    5.90
   1  -7 -10  116.29    4.40
   7  -6  10  112.89    4.20
   7  -6  10  115.99    5.50
   0  -7 -10   36.30    2.10
   7   0 -10   29.00    1.90
   0  -7 -10   26.60    2.80
   7   0 -10   27.10    2.80
   7   0 -10   28.70    2.20
  -7   7 -10   29.20    1.80
   7   0 -10   29.90    1.90
   0  -7 -10   33.20    3.50
   7  -7  10   29.10    2.50
   8  -1 -10   44.70    2.20
  -1  -7 -10   43.30    2.80
  -7   8 -10   46.50    2.10
   8  -1 -10   43.50    2.90
  -1  -7 -10   50.59    3.30
   8  -1 -10   40.20    2.40
   8  -1 -10   44.30    2.30
   7  -8  10   45.60    2.70
  -8   1  10   44.00    3.70
   1   7 -10    5.80    1.10
  -8   1 -10    6.00    1.20
   1   7 -10    3.40    0.70
  -8   1 -10    5.20    1.40
   8  -1  10    4.90    0.80
   2   6 -10   20.60    1.50
  -8   2 -10   21.20    1.90
   2   6 -10   21.00    1.60
  -8   2 -10   21.00    2.10
   8  -2  10   20.00    1.50
  -8   3 -10   62.39    3.30
   3   5 -10   59.09    2.80
   3   5 -10   59.89    2.80
   8  -3  10   60.39    3.30
   8  -3  10   63.79    2.70
   4   4 -10   89.29    3.70
  -8   4 -10   90.29    4.20
   4   4 -10   89.49    3.70
   8  -4  10   92.69    4.40
   8  -4  10   93.69    3.60
   3  -8 -10   74.39    4.30
   5   3 -10   77.79    3.30
   3  -8 -10   74.49    4.20
   5   3 -10   80.99    3.40
  -8   5 -10   77.49    3.70
  -5  -3  10   72.19    5.00
   8  -5  10   81.79    3.20
   8  -5  10   80.89    4.10
   2  -8 -10   52.59    3.50
  -8   6 -10   51.99    2.70
   6   2 -10   53.09    2.50
   2  -8 -10   55.69    2.90
   2  -8 -10   49.40    3.50
   8  -6  10   52.09    3.10
  -6  -2  10   50.89    4.20
   8  -6  10   52.19    2.30
   7   1 -10    4.70    0.90
   1  -8 -10    2.40    1.00
   1  -8 -10    7.80    1.10
   7   1 -10    5.00    0.90
   1  -8 -10    3.80    1.40
   8  -7  10    5.00    1.40
  -7  -1  10    3.10    1.10
   8  -7  10    4.70    0.80
  -9   4 -10   40.70    2.20
   9  -4  10   42.80    1.90
  -9   5 -10   88.19    4.20
   9  -5  10   96.59    3.50
   0   0 -11    0.10    1.10
   0   0 -11    0.50    0.70
   0   0  11   -1.00    1.10
  -1   0 -11   57.19    4.40
   1  -1 -11   56.59    4.00
   0   1 -11   54.49    4.10
   0   1 -11   56.19    3.50
   1  -1 -11   57.39    3.60
  -1   0 -11   57.99    3.60
   1  -1 -11   56.19    4.60
  -1   0 -11   68.59    3.90
  -1   1  11   62.39    5.70
   0  -1  11   52.79    5.30
  -1   1 -11   42.60    3.00
   0  -1 -11   41.30    3.40
   0  -1 -11   38.80    4.40
   0  -1 -11   42.90    3.90
   1   0 -11   40.60    3.00
   0  -1 -11   45.20    3.10
  -1   1 -11   33.00    3.50
   1   0 -11   39.50    3.60
   1  -1  11   52.69    4.10
   1  -1  11   34.60    4.30
  -1   0  11   43.30    4.70
   2  -1 -11   18.00    2.30
  -1  -1 -11   18.50    2.90
  -1  -1 -11   20.40    2.50
   2  -1 -11   16.30    2.00
  -1   2 -11   15.90    2.00
  -1  -1 -11   16.30    2.00
  -1  -1 -11   15.70    2.70
  -1  -1 -11   16.30    3.00
   1  -2  11   11.00    2.60
   1  -2  11   13.40    3.30
  -2   1  11   15.40    3.10
   3  -2 -11  112.29    5.40
  -2  -1 -11  104.29    6.00
  -1   3 -11  110.89    4.80
  -1   3 -11  111.69    5.20
  -2  -1 -11  109.39    6.10
  -2  -1 -11  100.29    7.10
  -2  -1 -11  112.79    6.30
   3  -2 -11  114.09    6.10
   3  -2 -11  113.59    7.30
  -2  -1 -11  116.69    5.50
   1  -3  11  128.99    8.50
   1  -3  11  109.59    6.00
  -3   2  11  119.79    8.00
   2  -2 -11   51.29    4.80
   0   2 -11   51.09    3.30
   2  -2 -11   47.70    4.30
  -2   0 -11   49.40    3.40
   2  -2 -11   50.89    3.30
   2  -2 -11   52.49    3.90
  -2   0 -11   45.40    4.10
  -2   0 -11   53.49    3.80
   0   2 -11   47.40    2.80
   0  -2  11   55.89    3.80
   0  -2  11   54.09    5.60
   1  -2 -11  346.37   15.70
   1  -2 -11  339.97   13.40
   1   1 -11  377.46   14.50
   1  -2 -11  346.67   13.40
  -2   1 -11  339.97   13.60
   1   1 -11  346.47   11.70
   1  -2 -11  344.27   14.90
   1   1 -11  370.06   13.10
  -2   1 -11  352.66   12.70
   1   1 -11  342.47   12.50
  -2   1 -11  349.07   13.00
   1  -2 -11  376.06   12.70
  -1  -1  11  343.37   13.10
  -1  -1  11  366.06   16.00
   2  -1  11  337.37   13.00
   2  -1  11  353.96   15.20
   0  -2 -11  115.29    6.30
   0  -2 -11  124.79    6.60
   0  -2 -11  121.59    8.00
   2   0 -11  118.99    5.00
   2   0 -11  140.89    7.50
   0  -2 -11  133.49    7.60
   0  -2 -11  127.09    5.70
  -2   2 -11  117.19    5.70
   2   0 -11  131.19    6.20
   0  -2 -11  116.39    6.20
   2   0 -11  117.99    5.60
  -2   0  11  118.09    8.10
   2  -2  11  116.49    5.90
  -1  -2 -11  138.39    6.10
  -1  -2 -11  128.39    8.30
   3  -1 -11  138.19    5.40
   3  -1 -11  139.69    8.20
  -1  -2 -11  144.09    8.10
  -1  -2 -11  137.19    6.80
  -2   3 -11  131.69    6.00
  -2   3 -11  137.39    5.50
   3  -1 -11  133.29    6.10
  -1  -2 -11  133.39    6.90
  -1  -2 -11  135.59    7.00
   3  -1 -11  132.99    6.70
   2  -3  11  132.09    7.00
  -3   1  11  128.59    8.50
   2  -3  11  138.59    6.30
  -2   4 -11   58.09    3.40
   4  -2 -11   58.39    3.70
  -2  -2 -11   64.69    5.40
   4  -2 -11   57.79    4.20
  -2  -2 -11   58.09    4.40
  -2  -2 -11   58.79    5.30
   4  -2 -11   58.39    3.00
  -2  -2 -11   58.99    3.60
  -2  -2 -11   62.09    4.50
   4  -2 -11   56.39    5.30
  -2  -2 -11   62.39    4.70
  -2   4 -11   61.49    3.30
   2  -4  11   58.99    4.30
  -4   2  11   65.79    5.70
   2   2  11   53.49    3.80
  -3  -2 -11   20.00    2.80
   5  -3 -11   15.80    2.60
  -3  -2 -11   14.00    2.80
  -3  -2 -11   21.00    3.00
   5  -3 -11   13.30    4.00
  -2   5 -11   23.10    2.10
   5  -3 -11   19.70    2.40
  -3  -2 -11   19.10    3.30
   5  -3 -11   19.50    1.80
   2  -5  11   21.10    2.70
   3   2  11   20.50    1.80
  -3  -1 -11   19.20    2.60
   4  -3 -11   15.80    2.60
  -1   4 -11   17.80    1.80
  -3  -1 -11   15.80    2.10
   4  -3 -11   15.20    3.30
  -3  -1 -11   14.50    2.60
   4  -3 -11   16.10    2.20
  -3  -1 -11   12.70    2.60
   3   1  11   14.70    1.50
   1  -4  11   19.50    2.60
  -4   3  11   19.40    3.10
  -3   0 -11  197.78    8.00
  -3   0 -11  183.88    8.70
   0   3 -11  198.28    7.30
   0   3 -11  183.78    7.50
  -3   0 -11  184.08    8.60
   3  -3 -11  191.38    8.70
   3  -3 -11  203.08    8.00
   3  -3 -11  193.58   10.20
   0  -3  11  198.88    8.30
  -3   3  11  203.78   11.00
   0  -3  11  201.68   11.10
  -3   1 -11  577.94   20.30
   2  -3 -11  614.94   23.40
   1   2 -11  581.14   19.40
   2  -3 -11  582.54   20.50
   1   2 -11  578.84   21.40
  -3   1 -11  606.64   19.90
   2  -3 -11  608.44   19.60
   2  -3 -11  577.64   20.40
   2  -3 -11  582.44   22.50
  -3   1 -11  604.54   20.90
   1   2 -11  616.54   19.00
  -1  -2  11  590.24   20.00
  -1  -2  11  621.54   23.70
   3  -1  11  583.44   20.30
   1  -3 -11  191.58    8.90
   1  -3 -11  210.18    8.10
  -3   2 -11  195.38    8.20
   2   1 -11  207.28    7.60
   2   1 -11  223.78   10.10
   2   1 -11  211.88    8.60
   1  -3 -11  191.38   10.30
   2   1 -11  200.98    8.10
   1  -3 -11  202.08   11.10
  -3   2 -11  211.38    8.40
   1  -3 -11  205.28    9.10
   3  -2  11  204.68    8.80
  -2  -1  11  216.08   11.50
   3   0 -11  256.87   11.80
   0  -3 -11  241.58   10.30
   0  -3 -11  249.28   12.60
   3   0 -11  245.78    8.80
  -3   3 -11  241.68    9.40
   0  -3 -11  240.38   10.40
   0  -3 -11  249.58   10.20
   0  -3 -11  248.58   12.10
   3   0 -11  237.48    9.40
   3   0 -11  254.47   10.20
   3  -3  11  250.27   10.50
   3  -3  11  241.78    9.90
  -3   0  11  248.48   12.80
  -1  -3 -11    0.70    1.00
  -1  -3 -11    1.60    1.00
  -3   4 -11    1.30    0.80
   4  -1 -11    0.90    0.80
   4  -1 -11    1.20    0.90
   4  -1 -11    1.60    1.20
  -1  -3 -11    3.40    1.80
  -1  -3 -11    0.90    1.60
  -1  -3 -11    2.70    1.30
  -3   4 -11    1.70    0.90
   4  -1 -11    2.10    0.90
   3  -4  11    2.00    1.10
  -4   1  11    1.10    1.90
   3  -4  11    1.10    1.00
   5  -2 -11  104.49    7.60
  -3   5 -11  112.29    4.80
  -2  -3 -11  102.79    7.10
   5  -2 -11  100.89    5.80
   5  -2 -11  109.59    4.60
  -2  -3 -11  107.39    5.90
  -2  -3 -11  112.79    6.10
   5  -2 -11  107.59    5.30
  -2  -3 -11  106.79    5.90
   2   3  11   99.39    4.30
   3  -5  11  107.39    5.90
   3  -5  11  108.99    5.40
  -3  -3 -11   53.09    4.90
  -3  -3 -11   49.99    4.10
   6  -3 -11   55.99    6.00
   6  -3 -11   55.29    2.90
  -3   6 -11   56.09    3.00
  -3  -3 -11   53.69    3.90
   6  -3 -11   56.89    3.60
  -3  -3 -11   59.39    4.20
   6  -3 -11   47.90    4.00
   3  -6  11   56.09    4.00
   3   3  11   53.39    2.80
   7  -4 -11   84.79    5.20
   7  -4 -11   91.39    6.70
  -4  -3 -11   86.09    4.60
  -3   7 -11   90.19    3.80
   7  -4 -11   82.29    4.30
  -4  -3 -11   82.29    5.60
   7  -4 -11   78.99    3.60
   3  -7  11   85.59    4.70
   4   3  11   87.49    3.60
  -4  -2 -11    3.00    1.10
   6  -4 -11    0.70    1.20
  -2   6 -11    6.00    1.20
   6  -4 -11    3.40    1.20
  -4  -2 -11    3.30    1.40
   6  -4 -11   -0.20    1.80
   2  -6  11    4.70    1.30
   4   2  11    3.80    0.90
   5  -4 -11   22.50    3.00
  -1   5 -11   28.00    2.30
  -4  -1 -11   22.10    2.80
   5  -4 -11   26.70    2.40
  -4  -1 -11   29.50    3.10
   5  -4 -11   21.00    4.10
  -4  -1 -11   31.30    2.60
   1  -5  11   28.00    2.90
   4   1  11   30.60    2.00
  -4   0 -11   26.20    2.60
   0   4 -11   26.80    2.10
  -4   0 -11   21.60    2.90
   4  -4 -11   24.00    2.80
   4  -4 -11   20.30    3.50
  -4   0 -11   22.00    2.80
   4  -4 -11   22.60    2.30
   4   0  11   29.30    3.60
  -4   4  11   31.30    3.80
   4   0  11   25.50    1.90
   0  -4  11   24.70    4.50
   1   3 -11  313.67   10.50
  -4   1 -11  290.77   11.70
  -4   1 -11  306.17   11.20
   3  -4 -11  292.27   11.80
   3  -4 -11  293.27   13.40
  -4   1 -11  306.17   11.90
   3  -4 -11  297.47   10.80
  -1  -3  11  319.87   11.70
  -1  -3  11  290.77   14.40
   4  -1  11  282.17    9.80
   4  -1  11  288.97   11.70
   2   2 -11   68.89    5.20
  -4   2 -11   62.19    3.90
   2   2 -11   66.59    3.70
   2  -4 -11   66.29    5.90
   2  -4 -11   67.89    4.40
   2  -4 -11   65.59    5.60
   2   2 -11   65.29    3.40
   2  -4 -11   57.49    4.30
  -2  -2  11   73.39    6.70
   4  -2  11   63.59    4.50
   1  -4 -11   25.10    3.10
   1  -4 -11   25.80    3.70
   3   1 -11   27.60    2.40
   1  -4 -11   27.70    3.60
   3   1 -11   28.50    2.20
  -4   3 -11   28.20    2.70
   1  -4 -11   28.00    2.90
   1  -4 -11   30.40    4.10
   4  -3  11   26.10    3.20
  -3  -1  11   25.80    4.70
   4  -3  11   27.50    2.90
   4   0 -11   62.89    4.10
  -4   4 -11   56.39    3.60
   0  -4 -11   59.09    5.60
   4   0 -11   60.29    5.80
   0  -4 -11   55.49    5.20
   0  -4 -11   53.99    4.00
   4   0 -11   56.29    3.50
   0  -4 -11   55.29    4.30
   4   0 -11   56.99    3.10
   0  -4 -11   61.49    4.70
   4  -4  11   56.99    4.00
   4  -4  11   59.29    4.20
  -4   0  11   50.09    5.70
  -1  -4 -11   67.99    5.80
  -1  -4 -11   70.39    4.80
  -1  -4 -11   80.29    5.40
   5  -1 -11   69.49    4.60
   5  -1 -11   84.39    7.00
   5  -1 -11   71.29    4.00
  -4   5 -11   71.99    3.50
  -1  -4 -11   69.09    4.50
   5  -1 -11   71.29    3.60
   4  -5  11   71.99    4.40
   4  -5  11   67.39    4.50
  -2  -4 -11   55.49    5.20
  -2  -4 -11   58.79    4.00
  -2  -4 -11   67.99    4.80
   6  -2 -11   69.09    6.60
  -4   6 -11   57.49    3.10
   6  -2 -11   52.69    4.20
   6  -2 -11   56.29    3.50
   6  -2 -11   58.99    3.10
  -2  -4 -11   63.39    4.30
   4  -6  11   58.29    3.80
   4  -6  11   60.19    4.10
  -4   7 -11   30.90    2.10
  -3  -4 -11   28.90    2.50
   7  -3 -11   27.90    2.00
   7  -3 -11   25.20    2.50
  -3  -4 -11   27.50    3.60
  -3  -4 -11   27.90    3.10
   7  -3 -11   32.30    3.70
  -3  -4 -11   25.80    2.80
   4  -7  11   27.30    2.70
   3   4  11   29.40    1.90
   4  -7  11   29.80    2.50
   8  -4 -11  131.89    5.20
  -4  -4 -11  114.09    5.40
  -4   8 -11  137.09    4.80
  -4  -4 -11  120.59    6.30
   8  -4 -11  126.29    4.60
   8  -4 -11  136.99    5.90
   4  -8  11  131.49    5.60
   4   4  11  129.59    4.50
  -5  -3 -11   19.90    1.90
   8  -5 -11   18.90    2.70
  -5  -3 -11   18.80    2.50
   8  -5 -11   16.20    2.10
   8  -5 -11   15.70    1.50
  -3   8 -11   18.70    1.40
   3  -8  11   18.40    1.90
   5   3  11   18.60    2.00
   5   3  11   19.70    1.30
  -5  -2 -11   32.40    3.50
   7  -5 -11   29.40    2.50
  -5  -2 -11   34.50    2.90
   7  -5 -11   27.40    3.60
  -2   7 -11   32.00    2.10
   5   2  11   33.30    1.90
   5   2  11   35.70    3.10
   2  -7  11   31.70    2.80
   6  -5 -11   43.90    3.10
  -5  -1 -11   49.30    3.70
   6  -5 -11   40.80    3.60
  -1   6 -11   52.09    2.80
   1  -6  11   49.40    3.60
   5   1  11   56.79    4.10
   5   1  11   49.40    2.50
   0   5 -11   42.00    2.60
   5  -5 -11   34.00    4.30
   5  -5 -11   35.80    2.70
   5  -5 -11   37.00    3.30
  -5   0 -11   42.80    3.10
  -5   0 -11   40.10    3.50
   5   0  11   37.80    2.20
   5   0  11   50.59    4.00
   4  -5 -11  108.69    7.10
   1   4 -11  120.49    5.10
   4  -5 -11  116.99    6.00
  -5   1 -11  122.99    5.70
  -5   1 -11  113.09    6.10
   5  -1  11  122.19    6.20
   5  -1  11  117.59    4.60
  -5   2 -11   73.69    4.20
   3  -5 -11   65.19    4.50
   2   3 -11   70.19    3.60
   3  -5 -11   67.39    4.30
   3  -5 -11   61.79    5.30
   5  -2  11   70.69    3.20
   5  -2  11   71.79    5.00
   5  -2  11   72.69    4.60
   2  -5 -11   44.20    3.40
  -5   3 -11   47.30    3.30
   2  -5 -11   42.80    4.70
   3   2 -11   49.40    3.00
   2  -5 -11   44.70    3.80
   3   2 -11   47.00    2.80
  -3  -2  11   61.89    9.40
   5  -3  11   45.20    3.80
   5  -3  11   46.90    3.80
   1  -5 -11   15.30    2.30
   4   1 -11   18.80    1.90
  -5   4 -11   17.30    2.20
   1  -5 -11   14.20    3.20
   1  -5 -11   14.10    3.40
   1  -5 -11   13.70    2.70
   4   1 -11   18.00    1.90
   5  -4  11   18.40    2.60
   5  -4  11   17.60    2.60
   5   0 -11  126.29    6.30
   0  -5 -11  131.79    6.80
   5   0 -11  135.49    8.80
   0  -5 -11  118.19    7.50
   5   0 -11  126.79    5.60
   5   0 -11  130.19    5.30
  -5   5 -11  122.69    5.50
   0  -5 -11  124.99    6.70
   5  -5  11  126.19    6.20
   5  -5  11  119.39    6.10
   6  -1 -11  332.67   11.30
  -1  -5 -11  341.67   12.80
  -5   6 -11  341.17   11.20
  -1  -5 -11  333.97   14.20
   6  -1 -11  345.97   12.80
   6  -1 -11  342.27   14.60
  -1  -5 -11  358.16   12.80
   6  -1 -11  325.57   11.70
   5  -6  11  334.07   12.30
   5  -6  11  328.27   12.40
  -2  -5 -11  142.19    6.50
  -5   7 -11  146.99    5.40
   7  -2 -11  143.89    5.40
  -2  -5 -11  129.29    7.30
   7  -2 -11  144.59    5.90
  -2  -5 -11  151.08    6.70
   7  -2 -11  149.69    8.10
   7  -2 -11  151.48    6.90
   5  -7  11  144.09    6.20
   2   5  11  143.09    5.20
   5  -7  11  142.29    6.30
  -5   8 -11   22.60    1.50
  -3  -5 -11   21.00    2.20
  -3  -5 -11   20.20    2.60
   8  -3 -11   20.90    1.50
  -3  -5 -11   15.30    2.10
   8  -3 -11   20.80    2.10
   5  -8  11   23.00    1.80
   5  -8  11   22.90    2.00
   3   5  11   23.80    1.50
  -6  -2 -11   15.10    1.70
  -2   8 -11   16.10    1.20
   2  -8  11   15.70    1.70
   6   2  11   16.70    1.10
  -6  -1 -11   78.29    4.30
  -1   7 -11   82.39    3.40
   1  -7  11   75.49    4.00
   6   1  11   80.19    4.00
   6   1  11   83.19    3.20
  -6   0 -11   64.09    4.10
  -6   0 -11   73.09    3.70
   0   6 -11   73.89    3.40
   6   0  11   72.09    3.10
   6   0  11   72.39    4.20
   1   5 -11   95.19    4.10
  -6   1 -11   90.39    4.50
  -6   1 -11   91.79    5.10
   6  -1  11   91.09    3.80
   6  -1  11   92.99    5.00
   2   4 -11   27.80    2.20
  -6   2 -11   28.40    2.60
  -6   2 -11   27.80    2.60
   6  -2  11   27.40    1.90
   6  -2  11   26.80    2.90
   3  -6 -11  165.18    8.60
   3   3 -11  180.48    6.70
  -6   3 -11  177.08    7.30
   3  -6 -11  167.88    7.70
   6  -3  11  175.38    6.20
   6  -3  11  184.98    7.80
   2  -6 -11   49.00    4.00
   4   2 -11   56.99    3.00
   2  -6 -11   50.59    4.50
   4   2 -11   45.50    4.80
  -6   4 -11   55.29    3.40
   2  -6 -11   52.29    4.30
   6  -4  11   59.19    3.90
   6  -4  11   56.79    2.60
   1  -6 -11  169.88    7.80
   5   1 -11  173.58    6.60
  -6   5 -11  170.88    6.80
   1  -6 -11  165.38    8.50
   5   1 -11  161.88    9.10
   1  -6 -11  180.08    7.90
   5   1 -11  177.38    6.40
   5   1 -11  161.18    7.30
   6  -5  11  159.58    7.00
   6  -5  11  179.78    7.40
   6   0 -11   -0.90    1.30
   0  -6 -11    0.00    0.80
   6   0 -11    0.00    1.20
   0  -6 -11    2.40    1.80
   6   0 -11    0.60    0.70
   6   0 -11    1.60    0.80
   6  -6  11    0.10    0.90
   6  -6  11    0.90    0.70
  -1  -6 -11   29.30    2.80
  -1  -6 -11   25.40    2.90
   7  -1 -11   30.20    1.90
   7  -1 -11   29.50    2.20
  -6   7 -11   26.50    1.70
   7  -1 -11   27.30    3.70
   7  -1 -11   33.10    3.30
   6  -7  11   32.40    2.60
   6  -7  11   29.60    2.30
   8  -2 -11   36.50    1.80
  -2  -6 -11   34.50    2.60
   8  -2 -11   35.50    2.20
  -6   8 -11   33.80    1.80
  -2  -6 -11   33.70    2.80
  -2  -6 -11   31.20    2.80
   2   6  11   35.70    1.70
   6  -8  11   36.40    2.20
  -7   0 -11    6.50    1.40
   0   7 -11    6.90    1.00
   7   0  11    3.80    1.40
   7   0  11    6.80    1.00
  -7   1 -11   15.40    1.70
   1   6 -11   16.60    1.50
  -7   1 -11   15.60    2.00
   7  -1  11   14.60    1.90
   7  -1  11   14.80    1.40
  -7   2 -11    8.70    1.60
  -7   2 -11   10.80    1.90
   2   5 -11    8.40    1.30
   7  -2  11    9.30    1.80
   7  -2  11   11.30    1.30
  -7   3 -11    0.20    0.70
   3   4 -11    0.40    0.70
   7  -3  11    0.90    0.90
   7  -3  11    0.60    0.60
   4   3 -11    8.80    1.40
  -7   4 -11    6.60    1.60
   7  -4  11    8.00    1.90
   7  -4  11    9.10    1.20
   2  -7 -11   45.40    3.70
   2  -7 -11   51.89    4.00
  -7   5 -11   52.69    3.00
   5   2 -11   53.79    2.70
   7  -5  11   53.29    2.40
   7  -5  11   53.89    3.40
   1  -7 -11   85.29    4.90
   6   1 -11   85.59    3.50
   6   1 -11   73.89    3.90
   1  -7 -11   79.59    4.60
   7  -6  11   83.79    4.20
   0  -7 -11   27.00    2.60
   0  -7 -11   37.00    3.10
   7   0 -11   27.70    1.70
   7   0 -11   26.80    2.30
   7  -7  11   29.50    2.20
  -8   2 -11   29.80    1.90
   2   6 -11   20.10    1.70
   8  -2  11   27.00    1.40
  -8   3 -11   28.30    2.00
   3   5 -11   26.50    1.60
   8  -3  11   26.90    2.00
   8  -3  11   28.70    1.50
  -8   4 -11  111.19    4.50
   4   4 -11  108.09    4.10
   8  -4  11  114.39    3.90
   8  -4  11  112.09    4.70
  -8   5 -11   69.59    3.20
   3  -8 -11   74.09    3.80
   5   3 -11   71.19    2.90
  -5  -3  11   62.89    4.50
   8  -5  11   70.99    2.70
   8  -5  11   73.39    3.50
   2  -8 -11  133.49    5.60
   6   2 -11  133.19    4.60
   8  -6  11  142.09    5.40
  -6  -2  11  128.39    6.10
   0   0 -12  178.88    8.60
   0   0 -12  184.48    7.80
   0   0 -12  181.38    8.40
   0   0 -12  221.88    9.50
   0   0  12  180.18   10.60
   1  -1 -12  164.18    8.60
   1  -1 -12  151.08    7.50
   0   1 -12  172.18    7.10
   1  -1 -12  151.48    6.80
  -1   0 -12  151.58    6.80
   1  -1 -12  152.28    7.50
  -1   0 -12  146.99    7.30
  -1   0 -12  164.58    8.10
   0   1 -12  152.38    6.80
   1   0  12  145.19    9.20
   1   0  12  147.49    7.00
   0  -1  12  144.59    9.30
  -1   1  12  158.28    9.70
  -1   1 -12   54.39    3.70
   0  -1 -12   57.29    3.70
   0  -1 -12   58.79    4.60
   1   0 -12   57.99    3.70
  -1   1 -12   51.99    4.30
   1   0 -12   52.29    4.10
   1   0 -12   64.69    4.00
   0  -1 -12   53.99    4.10
   1  -1  12   49.80    5.40
  -1   0  12   50.79    5.50
   2  -1 -12   88.79    5.40
  -1   2 -12   85.89    4.70
  -1   2 -12  107.49    4.70
   2  -1 -12   89.09    4.70
  -1  -1 -12   93.39    5.90
  -1  -1 -12   82.19    5.20
   2  -1 -12   89.19    6.40
  -1  -1 -12   84.49    4.70
  -2   1  12   81.39    6.80
   1  -2  12   84.79    5.60
  -2  -1 -12  248.28   10.70
   3  -2 -12  268.07   10.80
  -2  -1 -12  258.27   11.00
  -1   3 -12  261.77    9.10
  -2  -1 -12  262.47    9.90
  -1   3 -12  251.07    9.60
  -2  -1 -12  226.48   12.00
   3  -2 -12  266.47   10.00
  -2  -1 -12  272.27   11.80
   3  -2 -12  268.17   12.60
  -3   2  12  268.17   13.20
   1  -3  12  251.07   10.60
   2  -2 -12  225.58    9.80
   0   2 -12  221.98    8.20
   2  -2 -12  232.28   11.50
   2  -2 -12  242.78    9.20
  -2   0 -12  218.08   10.00
   0   2 -12  225.68    8.90
   2  -2 -12  237.38   10.00
  -2   0 -12  224.58    9.80
  -2   0 -12  245.88    9.30
   2   0  12  226.88   11.80
  -2   2  12  237.58   12.40
   2   0  12  221.78    9.50
   0  -2  12  234.58    9.70
   0  -2  12  236.48   12.40
  -2   1 -12  415.56   14.30
   1   1 -12  422.26   16.10
   1  -2 -12  403.86   14.10
  -2   1 -12  397.66   14.60
   1  -2 -12  387.36   15.00
   1   1 -12  397.06   14.50
   1   1 -12  392.76   13.10
   1   1 -12  403.36   14.10
   1  -2 -12  389.36   16.70
   1  -2 -12  395.86   15.00
  -2   1 -12  409.76   15.30
   2  -1  12  386.66   14.40
  -1  -1  12  405.56   17.80
  -1  -1  12  411.16   14.70
   2   0 -12  130.69    6.00
  -2   2 -12  131.99    6.10
   2   0 -12  128.49    5.20
   0  -2 -12  132.29    6.50
   0  -2 -12  123.99    6.70
   2   0 -12  149.88    7.90
   0  -2 -12  117.59    7.70
   2   0 -12  132.69    6.60
   0  -2 -12  131.99    6.00
   0  -2 -12  127.39    8.40
   0  -2 -12  131.99    7.10
   2  -2  12  129.29    7.10
   2  -2  12  129.29    6.20
  -2   0  12  119.89    8.60
  -1  -2 -12   20.50    3.60
  -1  -2 -12   22.30    3.60
   3  -1 -12   19.50    2.30
   3  -1 -12   26.20    3.90
  -1  -2 -12   23.70    3.40
  -2   3 -12   20.60    2.30
   3  -1 -12   22.90    2.70
  -1  -2 -12   21.50    2.20
  -1  -2 -12   20.00    2.70
  -1  -2 -12   26.60    3.20
  -3   1  12   21.40    3.70
   2  -3  12   21.20    3.00
  -2  -2 -12   34.50    3.50
   4  -2 -12   30.90    3.20
  -2  -2 -12   31.70    4.00
  -2  -2 -12   34.00    2.70
   4  -2 -12   28.60    4.30
  -2  -2 -12   40.30    4.00
   4  -2 -12   33.40    2.90
  -2  -2 -12   33.70    3.40
  -2   4 -12   34.60    2.30
  -2   4 -12   32.50    2.50
   2  -4  12   35.30    3.40
  -3  -2 -12   82.59    5.20
   5  -3 -12   91.09    4.60
  -3  -2 -12   84.09    6.00
  -2   5 -12   93.39    4.10
   5  -3 -12   83.49    5.20
  -3  -2 -12   92.29    5.20
   5  -3 -12   80.59    6.80
   3   2  12   84.29    3.60
   2  -5  12   88.29    5.00
   4  -3 -12   21.20    2.30
  -1   4 -12   16.80    1.70
   4  -3 -12   10.10    3.30
  -3  -1 -12   17.20    2.10
  -3  -1 -12   15.50    2.40
   4  -3 -12   12.60    2.40
   1  -4  12   16.90    2.40
  -3   0 -12  109.89    6.40
   0   3 -12  119.69    5.00
  -3   0 -12  116.99    5.70
   3  -3 -12  118.69    6.30
   3  -3 -12  121.19    5.60
  -3   0 -12  113.59    6.20
   3  -3 -12  114.69    7.60
   0   3 -12  119.59    5.40
   3   0  12  120.09    6.40
   0  -3  12  120.69    8.50
   0  -3  12  125.69    5.90
  -3   3  12  120.29    8.10
  -3   1 -12   40.40    3.80
   2  -3 -12   44.80    3.20
   2  -3 -12   43.70    4.20
  -3   1 -12   48.90    3.40
   2  -3 -12   43.30    4.60
   1   2 -12   45.60    2.70
   1   2 -12   49.30    3.20
   2  -3 -12   43.90    3.80
   3  -1  12   44.60    3.60
  -1  -2  12   55.39    6.20
   1  -3 -12  238.38   12.70
   2   1 -12  267.37   11.80
   2   1 -12  253.47    9.80
   1  -3 -12  248.48   12.30
   2   1 -12  262.67    9.20
  -3   2 -12  261.97   10.10
   1  -3 -12  255.97   10.90
   1  -3 -12  269.17    9.90
   1  -3 -12  263.67   10.90
   2   1 -12  271.87   10.40
  -3   2 -12  265.67   10.10
   3  -2  12  251.47   10.40
  -2  -1  12  269.07   13.50
   3  -2  12  280.47   11.30
   3   0 -12  103.49    5.10
   0  -3 -12  101.69    6.20
   0  -3 -12  110.59    6.10
   0  -3 -12  109.29    5.90
   0  -3 -12  100.29    7.40
   3   0 -12  103.89    7.10
  -3   3 -12  101.79    5.10
   0  -3 -12  103.19    7.10
   3   0 -12  107.69    5.70
   3   0 -12  105.99    4.60
   0  -3 -12   96.29    5.50
  -3   0  12  112.09    8.10
   3  -3  12  108.59    6.10
   3  -3  12  104.49    5.50
   4  -1 -12   69.69    4.10
  -1  -3 -12   80.49    5.20
  -1  -3 -12   70.79    5.20
  -1  -3 -12   64.79    5.60
  -1  -3 -12   74.19    4.70
  -3   4 -12   72.29    3.90
   4  -1 -12   71.09    6.30
   4  -1 -12   71.29    4.70
   4  -1 -12   65.69    3.40
   3  -4  12   65.69    4.10
   3  -4  12   68.39    4.60
  -3   5 -12   37.10    2.30
  -2  -3 -12   32.50    4.00
   5  -2 -12   35.70    2.90
   5  -2 -12   31.30    3.40
   5  -2 -12   35.80    2.30
   5  -2 -12   36.30    5.60
  -2  -3 -12   39.30    3.80
  -2  -3 -12   40.80    4.00
  -2  -3 -12   34.90    3.20
   3  -5  12   40.30    3.00
   3  -5  12   37.50    3.30
  -3  -3 -12  149.59    6.80
  -3  -3 -12  149.99    8.10
   6  -3 -12  163.48    9.10
  -3   6 -12  158.78    5.80
   6  -3 -12  151.48    5.60
   6  -3 -12  143.79    7.00
   6  -3 -12  149.19    6.20
  -3  -3 -12  151.08    7.00
  -3  -3 -12  149.19    6.80
   3  -6  12  146.09    6.70
   3   3  12  146.49    5.30
   7  -4 -12   31.70    4.00
   7  -4 -12   23.60    3.40
  -4  -3 -12   23.30    2.30
   7  -4 -12   23.20    2.20
  -4  -3 -12   24.10    2.90
  -3   7 -12   26.40    1.80
   3  -7  12   26.10    2.40
   4   3  12   33.70    2.90
   4   3  12   26.50    1.60
   6  -4 -12    2.30    1.00
  -4  -2 -12    4.50    1.20
  -4  -2 -12    3.50    1.20
   6  -4 -12    0.50    1.30
  -2   6 -12    5.70    1.00
   6  -4 -12    2.90    2.00
  -4  -2 -12    2.00    1.20
   4   2  12    4.30    0.80
   2  -6  12    3.80    1.10
  -4  -1 -12    8.30    2.30
  -1   5 -12   16.70    1.70
  -4  -1 -12   14.30    1.80
  -4  -1 -12   12.80    2.30
   5  -4 -12   12.00    2.00
   4   1  12   14.30    1.40
   4   1  12   21.00    3.10
   1  -5  12   13.90    2.30
  -4   0 -12   62.09    3.70
  -4   0 -12   56.99    4.30
   4  -4 -12   51.79    5.20
   4  -4 -12   61.09    3.60
   4  -4 -12   60.19    4.20
   0   4 -12   64.79    3.30
  -4   0 -12   61.19    4.30
   4   0  12   66.79    4.60
   4   0  12   61.09    3.00
  -4   1 -12   62.09    4.30
   3  -4 -12   64.29    4.50
  -4   1 -12   67.09    4.00
   1   3 -12   69.39    3.50
   3  -4 -12   59.99    5.50
   3  -4 -12   62.29    3.60
   4  -1  12   66.39    4.50
   2  -4 -12  272.57   11.10
   2   2 -12  266.27    9.40
  -4   2 -12  285.97   10.30
   2  -4 -12  256.87   12.40
   2   2 -12  261.47    9.70
   2  -4 -12  268.57   10.80
  -4   2 -12  272.57   10.20
   4  -2  12  265.17   11.00
   4  -2  12  258.57   10.60
   3   1 -12    0.90    1.30
   1  -4 -12    3.20    1.80
  -4   3 -12    0.60    0.90
   1  -4 -12   -1.00    0.90
   3   1 -12    0.70    0.70
   1  -4 -12   -2.20    1.20
   1  -4 -12   -0.30    0.70
   3   1 -12    0.50    0.90
   4  -3  12    0.30    1.00
   4  -3  12    0.40    1.20
   0  -4 -12   31.40    3.90
   0  -4 -12   33.80    3.20
   4   0 -12   42.90    3.30
  -4   4 -12   36.20    2.80
   4   0 -12   36.50    2.80
   4   0 -12   35.40    2.40
   0  -4 -12   33.50    4.10
   4   0 -12   42.80    5.50
   4  -4  12   35.60    3.30
   4  -4  12   36.10    3.10
   5  -1 -12   20.50    2.80
   5  -1 -12   21.90    1.90
  -1  -4 -12   19.00    2.50
  -1  -4 -12   17.50    3.30
   5  -1 -12   18.40    2.20
  -4   5 -12   19.40    1.70
  -1  -4 -12   20.10    3.30
   4  -5  12   23.00    2.50
   4  -5  12   20.40    2.50
   6  -2 -12  147.49    8.60
  -2  -4 -12  125.29    6.20
   6  -2 -12  126.49    4.90
  -2  -4 -12  124.89    7.20
  -2  -4 -12  136.59    6.30
   6  -2 -12  124.99    5.50
  -2  -4 -12  123.29    5.80
   6  -2 -12  121.99    6.30
  -4   6 -12  125.19    4.90
   2   4  12  122.69    4.60
   4  -6  12  125.29    5.60
   4  -6  12  124.39    6.00
   7  -3 -12   59.89    4.10
  -3  -4 -12   57.99    3.20
   7  -3 -12   56.79    2.60
   7  -3 -12   53.99    3.10
  -3  -4 -12   53.69    4.10
  -3  -4 -12   46.70    3.50
   7  -3 -12   63.49    5.10
  -4   7 -12   60.09    2.70
   3   4  12   60.09    2.50
   4  -7  12   58.59    3.40
  -2   7 -12   14.80    1.40
  -5  -2 -12   13.60    1.80
   7  -5 -12   11.80    1.70
   2  -7  12   14.60    1.90
   5   2  12   14.90    1.20
   5   2  12   14.10    2.00
  -5  -1 -12   12.20    2.00
   6  -5 -12    8.10    1.60
  -1   6 -12   12.50    1.50
   5   1  12   15.60    2.40
   5   1  12   12.70    1.30
   1  -6  12   11.80    1.90
   5  -5 -12   57.59    3.90
  -5   0 -12   63.69    4.10
  -5   0 -12   69.69    3.70
   5  -5 -12   64.49    4.00
   0   5 -12   66.89    3.30
   5   0  12   65.59    2.90
   5   0  12   74.89    4.40
   4  -5 -12  287.57   12.60
  -5   1 -12  297.37   10.70
   4  -5 -12  282.27   10.90
  -5   1 -12  275.17   11.00
   1   4 -12  301.87   10.00
   5  -1  12  301.77   11.20
   5  -1  12  287.97   11.20
   5  -1  12  290.57    9.50
  -5   2 -12  117.79    5.60
   2   3 -12  119.79    5.00
   3  -5 -12  114.89    5.80
   3  -5 -12  114.89    7.20
  -5   2 -12  136.69    5.70
   5  -2  12  122.49    6.10
   5  -2  12  114.89    6.10
   2  -5 -12  158.48    7.70
   3   2 -12  173.28    7.10
  -5   3 -12  164.38    6.90
   3   2 -12  172.38    6.30
   2  -5 -12  160.98    7.20
   3   2 -12  142.39    8.30
   2  -5 -12  159.98    8.80
   5  -3  12  159.08    7.30
   5  -3  12  174.08    7.50
   4   1 -12   59.49    3.30
   4   1 -12   64.79    3.70
   1  -5 -12   54.29    3.70
   1  -5 -12   53.79    4.90
   1  -5 -12   51.69    4.40
  -5   4 -12   56.99    3.40
   4   1 -12   57.19    3.00
   4   1 -12   44.20    5.40
   1  -5 -12   68.89    4.90
   5  -4  12   57.99    3.90
   5  -4  12   53.49    3.80
   5   0 -12   87.89    3.90
   0  -5 -12   83.99    5.90
   0  -5 -12   90.09    5.40
   5   0 -12   88.89    4.90
  -5   5 -12   84.39    4.10
   0  -5 -12  101.39    5.50
   5   0 -12   88.29    4.20
   5   0 -12   93.19    6.90
   5  -5  12   85.09    4.70
   5  -5  12   88.99    4.80
   6  -1 -12  113.89    4.50
  -1  -5 -12  106.39    5.70
  -1  -5 -12  100.99    6.20
  -1  -5 -12  125.59    5.90
   6  -1 -12  117.59    7.30
   6  -1 -12  110.59    5.70
   6  -1 -12  112.99    4.90
  -5   6 -12  106.69    4.20
   5  -6  12  103.59    5.20
   5  -6  12  110.59    5.20
   7  -2 -12   22.60    1.60
  -2  -5 -12   20.30    2.70
   7  -2 -12   29.20    3.10
  -2  -5 -12   22.20    2.60
   7  -2 -12   26.70    3.50
  -5   7 -12   21.30    1.40
  -2  -5 -12   26.20    2.60
   7  -2 -12   22.40    2.00
   5  -7  12   23.00    2.10
   2   5  12   22.20    1.40
   5  -7  12   23.70    2.00
  -1   7 -12   40.00    2.00
  -6  -1 -12   40.10    2.60
   6   1  12   41.20    1.90
   6   1  12   41.10    2.50
  -6   0 -12   23.20    1.80
  -6   0 -12   22.50    2.30
   0   6 -12   21.30    1.70
   6   0  12   23.30    2.30
   6   0  12   21.20    1.40
  -6   1 -12    2.10    0.90
  -6   1 -12    2.60    0.90
   1   5 -12    3.20    0.90
   6  -1  12    2.50    1.10
   6  -1  12    3.20    0.70
   2   4 -12   32.30    2.20
  -6   2 -12   30.40    2.50
  -6   2 -12   33.60    2.60
   6  -2  12   32.20    1.80
   6  -2  12   32.20    2.80
   3   3 -12   38.80    2.40
   3  -6 -12   31.40    3.40
  -6   3 -12   36.10    2.70
   3  -6 -12   35.80    3.60
   6  -3  12   39.70    3.10
   2  -6 -12   45.20    3.90
  -6   4 -12   51.19    3.10
   2  -6 -12   47.70    4.10
   4   2 -12   51.19    2.70
   4   2 -12   44.90    4.20
   6  -4  12   52.59    3.50
   5   1 -12   11.50    1.40
   1  -6 -12   16.50    3.20
   5   1 -12    7.80    1.40
  -6   5 -12    7.40    1.50
   6  -5  12    7.50    1.80
   0  -6 -12   61.39    4.10
   6   0 -12   61.59    4.90
   6   0 -12   65.39    2.90
   0  -6 -12   56.99    4.20
   6   0 -12   53.49    3.70
   6   0 -12   61.99    3.00
   6  -6  12   64.39    3.50
   6  -6  12   61.09    3.30
  -1  -6 -12   28.10    2.60
   7  -1 -12   28.90    2.00
   7  -1 -12   28.90    2.70
  -1  -6 -12   29.70    2.60
   7  -1 -12   30.20    1.70
  -1  -6 -12   38.00    2.80
   6  -7  12   31.50    2.10
  -7   1 -12   22.50    1.90
  -7   1 -12   27.10    2.00
   1   6 -12   24.00    1.50
   7  -1  12   24.30    1.30
   7  -1  12   26.20    2.10
   2   5 -12   36.80    2.00
  -7   2 -12   37.60    2.40
   7  -2  12   34.50    2.40
   7  -2  12   35.30    1.70
   3   4 -12  104.79    4.10
  -7   3 -12  108.99    4.60
   7  -3  12  108.59    3.80
   7  -3  12  109.99    4.80
  -7   4 -12    9.80    1.50
   4   3 -12   10.90    1.30
   7  -4  12   11.60    1.70
   2  -7 -12   13.70    2.50
   5   2 -12   17.70    1.40
   2  -7 -12   19.90    3.40
  -7   5 -12   17.80    1.60
   7  -5  12   17.70    1.90
   6   1 -12    6.10    1.00
   7  -6  12    8.40    1.50
   0   0 -13    0.30    0.90
   0   0 -13    0.30    0.70
   0   0 -13    0.10    1.30
   0   0  13   -1.30    1.70
   1  -1 -13  270.77   12.80
  -1   0 -13  272.47   11.30
  -1   0 -13  300.07   12.30
  -1   0 -13  299.07   10.90
   0   1 -13  286.37   10.70
   1  -1 -13  300.07   10.80
   0   1 -13  275.87   10.90
  -1   0 -13  281.67   11.70
   1  -1 -13  282.67   11.50
   1  -1 -13  273.17   11.40
   0  -1  13  281.97   11.50
   1   0  13  323.27   12.80
  -1   1  13  256.97   13.60
   1   0 -13   42.40    3.20
   0  -1 -13   37.50    3.60
  -1   1 -13   54.09    3.30
  -1   1 -13   42.20    3.20
   1   0 -13   41.80    3.60
   0  -1 -13   46.60    4.30
   0  -1 -13   50.09    4.40
   0  -1 -13   43.60    3.30
   0   1  13   35.80    5.50
  -1   0  13   36.00    5.00
   2  -1 -13  252.37   10.60
  -1  -1 -13  254.87   10.80
   2  -1 -13  248.98   12.10
   2  -1 -13  278.17   10.10
  -1  -1 -13  269.77   11.20
  -1   2 -13  258.47    9.90
  -1  -1 -13  271.77   10.00
  -1  -1 -13  258.97   11.80
   1  -2  13  262.27   10.90
   1   1  13  254.37   10.30
  -2  -1 -13  158.18    7.80
  -2  -1 -13  134.89    7.10
   3  -2 -13  142.59    6.30
  -2  -1 -13  134.49    6.80
   3  -2 -13  134.49    8.30
  -1   3 -13  135.79    5.90
  -2  -1 -13  143.89    6.20
   3  -2 -13  144.79    7.10
   1  -3  13  137.29    6.90
   2   1  13  138.99    6.90
   2  -2 -13   59.49    5.40
   2  -2 -13   57.59    4.70
   0   2 -13   56.59    3.50
   2  -2 -13   62.59    3.80
  -2   0 -13   58.59    4.20
   2  -2 -13   58.39    4.30
  -2   0 -13   65.99    3.90
  -2   0 -13   53.39    4.60
   0   2 -13   76.39    4.70
   2   0  13   59.09    4.20
  -2   1 -13  254.97    9.90
   1  -2 -13  248.78   10.60
   1   1 -13  265.17   10.10
   1   1 -13  288.37   11.60
  -2   1 -13  249.97   10.20
   1  -2 -13  238.58   11.90
   1  -2 -13  260.77    9.80
   1   1 -13  250.67    9.70
   1  -2 -13  259.07   10.70
  -1  -1  13  265.47   10.20
   2  -1  13  244.78   10.00
   0  -2 -13  563.94   21.90
   2   0 -13  545.05   21.40
   0  -2 -13  617.84   19.20
   0  -2 -13  587.14   20.30
   2   0 -13  567.74   19.80
   0  -2 -13  571.54   20.20
   2   0 -13  593.74   19.20
  -2   2 -13  584.04   19.20
   2  -2  13  558.24   19.20
   2  -2  13  595.94   20.50
  -2   3 -13   66.19    3.80
   3  -1 -13   66.29    4.40
   3  -1 -13   67.09    4.00
  -1  -2 -13   63.89    5.40
  -1  -2 -13   66.09    3.80
  -1  -2 -13   65.79    4.50
  -1  -2 -13   77.79    5.40
   3  -1 -13   62.69    5.40
   2  -3  13   67.39    4.70
  -2   4 -13   99.19    4.60
   4  -2 -13  106.39    5.10
   4  -2 -13  100.79    5.60
  -2   4 -13  103.39    4.30
  -2  -2 -13  101.09    6.50
  -2  -2 -13  105.09    5.70
   4  -2 -13   94.69    7.00
  -2  -2 -13  110.89    4.80
  -2  -2 -13  107.99    6.10
   2  -4  13  104.99    5.60
   5  -3 -13   72.69    3.80
  -3  -2 -13   70.79    5.00
  -3  -2 -13   70.49    4.30
   5  -3 -13   68.19    6.20
  -3  -2 -13   62.99    4.40
   5  -3 -13   64.99    4.40
  -2   5 -13   71.49    3.30
   3   2  13   83.49    4.80
   2  -5  13   71.09    4.20
   4  -3 -13  135.49    8.20
   4  -3 -13  143.69    6.90
   4  -3 -13  146.39    6.20
  -3  -1 -13  156.58    7.40
  -3  -1 -13  139.79    7.00
  -3  -1 -13  147.59    6.20
  -3  -1 -13  139.19    6.80
  -1   4 -13  149.39    5.60
   1  -4  13  140.69    6.70
   3   1  13  151.88    7.00
   3  -3 -13   20.00    2.90
  -3   0 -13   24.00    2.80
   3  -3 -13   17.30    3.80
  -3   0 -13   25.70    2.50
   0   3 -13   25.30    2.20
   3  -3 -13   23.30    2.40
   0   3 -13   25.20    2.00
   3   0  13   26.60    2.90
   2  -3 -13    3.70    1.80
   2  -3 -13    0.40    1.20
   2  -3 -13    0.70    1.10
  -3   1 -13    1.90    1.10
   2  -3 -13    2.10    1.00
  -3   1 -13    2.60    1.00
   1   2 -13    0.60    0.70
   1   2 -13    2.10    0.90
   3  -1  13    1.50    1.10
  -3   2 -13   19.20    2.20
   2   1 -13   17.80    2.10
   2   1 -13   18.90    1.80
   1  -3 -13   17.10    2.50
   1  -3 -13   17.40    3.30
   1  -3 -13   26.80    4.00
   1  -3 -13   17.70    2.10
   3  -2  13   16.90    2.50
   3  -2  13   23.40    3.60
   0  -3 -13   33.10    3.40
   3   0 -13   31.50    4.40
   0  -3 -13   25.10    2.90
   3   0 -13   25.50    2.00
   0  -3 -13   37.10    4.30
   3   0 -13   31.40    2.80
   0  -3 -13   32.70    3.20
  -3   3 -13   27.30    2.50
   3   0 -13   28.10    2.50
   3  -3  13   28.30    2.70
   3  -3  13   29.40    3.30
  -1  -3 -13   86.79    6.20
   4  -1 -13   94.79    4.70
  -3   4 -13   88.19    4.40
   4  -1 -13   92.69    5.20
  -1  -3 -13  102.59    6.00
   4  -1 -13   91.09    6.70
   4  -1 -13   97.39    4.00
  -1  -3 -13   94.29    5.20
  -1  -3 -13  100.39    5.30
   3  -4  13   96.79    5.30
   3  -4  13   91.29    4.60
   5  -2 -13   54.99    5.90
  -2  -3 -13   51.69    3.60
   5  -2 -13   54.89    2.90
  -2  -3 -13   56.59    4.30
  -3   5 -13   51.59    2.60
   5  -2 -13   48.90    3.20
   5  -2 -13   44.30    3.70
  -2  -3 -13   46.70    4.30
   3  -5  13   51.39    3.60
   6  -3 -13    9.00    1.70
   6  -3 -13    7.00    1.60
  -3   6 -13   14.10    1.40
  -3  -3 -13   12.80    1.90
  -3  -3 -13   11.70    2.40
   3  -6  13   11.90    1.90
   7  -4 -13   12.60    2.00
  -3   7 -13   16.60    1.50
   3  -7  13   15.20    1.60
   4   3  13   14.50    1.80
   6  -4 -13   46.30    3.60
   6  -4 -13   47.00    2.80
   6  -4 -13   51.49    5.30
  -4  -2 -13   52.49    3.80
  -2   6 -13   55.69    2.60
  -4  -2 -13   49.99    3.30
  -4  -2 -13   52.69    3.00
   2  -6  13   56.59    3.30
   4   2  13   57.99    3.50
   4   2  13   60.89    3.10
  -4  -1 -13    4.60    1.00
   5  -4 -13    1.90    1.20
   5  -4 -13    5.00    1.10
  -4  -1 -13    3.20    1.20
  -1   5 -13    6.10    1.10
  -4  -1 -13    6.50    1.80
   1  -5  13    5.90    1.80
   4   1  13    9.10    2.30
   4  -4 -13   44.50    2.90
  -4   0 -13   44.70    3.00
  -4   0 -13   38.80    3.20
   0   4 -13   44.90    2.50
   4  -4 -13   33.30    4.30
   4  -4 -13   40.20    3.40
   4   0  13   45.10    3.50
   3  -4 -13    6.70    2.00
  -4   1 -13    9.10    2.00
   1   3 -13   10.30    1.50
   3  -4 -13    8.40    1.60
  -4   1 -13    9.00    1.80
   4  -1  13   14.60    2.90
   4  -1  13   10.30    2.30
   2   2 -13  147.79    5.70
   2  -4 -13  146.89    7.20
   2  -4 -13  143.29    6.90
  -4   2 -13  163.38    6.40
  -4   2 -13  143.29    6.30
   2   2 -13  145.79    6.00
   2  -4 -13  136.69    8.10
   4  -2  13  144.39    6.70
   4  -2  13  143.99    7.10
   1  -4 -13   97.29    5.30
  -4   3 -13   99.69    4.80
   1  -4 -13  105.49    6.10
   3   1 -13  110.99    4.90
   3   1 -13   90.89    6.70
   3   1 -13  101.39    4.70
   1  -4 -13   94.49    6.50
   3   1 -13   99.69    4.30
   4  -3  13   98.59    5.40
   4  -3  13   96.39    5.10
   4   0 -13   63.19    3.50
   0  -4 -13   75.29    4.40
   4   0 -13   66.79    4.00
   4   0 -13   68.29    6.10
  -4   4 -13   64.19    3.50
   0  -4 -13   63.19    4.00
   4   0 -13   65.49    3.20
   0  -4 -13   59.29    5.00
   0  -4 -13   70.29    4.90
   4  -4  13   63.19    4.10
   4  -4  13   62.19    3.90
  -1  -4 -13   21.40    3.20
   5  -1 -13   16.00    1.60
   5  -1 -13   17.20    2.00
  -1  -4 -13   15.20    2.90
  -1  -4 -13   17.80    2.30
   5  -1 -13   17.90    2.60
   4  -5  13   16.50    2.00
   4  -5  13   15.60    2.20
  -2  -4 -13   19.70    2.80
   6  -2 -13   16.80    1.40
   6  -2 -13   15.60    2.70
  -4   6 -13   18.30    1.40
   6  -2 -13   13.10    1.80
  -2  -4 -13   16.50    1.80
  -2  -4 -13   14.20    2.40
   4  -6  13   18.60    2.00
   7  -3 -13   22.20    2.50
   7  -3 -13   19.80    1.80
  -3  -4 -13   21.90    2.20
   4  -7  13   21.70    1.90
   3   4  13   23.90    2.10
  -5  -1 -13   17.70    1.90
   6  -5 -13   16.20    1.70
  -1   6 -13   17.40    1.40
   5   1  13   16.80    1.10
   5   1  13   18.70    2.00
  -5   0 -13   13.00    1.60
   5  -5 -13    8.50    2.00
  -5   0 -13   12.50    1.90
   0   5 -13   14.40    1.50
   5   0  13   15.10    2.10
  -5   1 -13    1.30    0.80
   4  -5 -13   -0.30    0.80
   1   4 -13    0.70    0.70
  -5   1 -13    1.50    0.90
   4  -5 -13   -0.40    1.10
   5  -1  13    1.50    1.00
   5  -1  13    0.60    1.00
   3  -5 -13  101.89    5.20
   2   3 -13  109.79    4.50
   3  -5 -13  101.79    6.40
  -5   2 -13  129.49    5.00
  -5   2 -13  116.29    5.10
   5  -2  13  110.99    5.40
   5  -2  13   98.29    5.30
   3   2 -13   16.00    3.10
   2  -5 -13   17.40    3.20
  -5   3 -13   23.90    2.30
   2  -5 -13   23.40    2.40
   3   2 -13   24.30    1.90
   2  -5 -13   21.90    3.40
   5  -3  13   26.20    2.60
   5  -3  13   22.50    2.50
   1  -5 -13   11.60    3.10
   4   1 -13   13.50    2.10
   1  -5 -13   11.30    1.80
  -5   4 -13   12.10    1.70
   1  -5 -13    9.00    2.70
   4   1 -13   14.00    1.60
   4   1 -13   10.20    1.50
   5  -4  13   12.60    2.10
   5  -4  13   12.00    1.90
   0  -5 -13  110.79    5.20
  -5   5 -13  107.99    4.40
   5   0 -13  102.39    5.20
   5   0 -13  110.59    6.80
   5   0 -13  107.99    4.50
   0  -5 -13  101.09    6.00
   0  -5 -13  115.79    5.90
   5   0 -13  106.89    4.20
   5  -5  13  106.99    4.90
   5  -5  13  108.39    5.00
   6  -1 -13    9.60    1.20
   6  -1 -13    9.30    2.40
  -1  -5 -13    6.40    1.90
   6  -1 -13    9.00    1.40
   6  -1 -13    9.90    2.90
  -1  -5 -13   12.60    2.50
   5  -6  13    9.30    1.50
   5  -6  13   10.00    1.50
   0   6 -13    3.60    0.70
  -6   0 -13    4.20    1.20
   6   0  13    2.40    0.80
  -6   1 -13    1.30    0.70
  -6   1 -13    0.70    0.60
   1   5 -13    0.40    0.60
   6  -1  13    1.00    0.70
   2   4 -13   47.20    2.40
  -6   2 -13   49.50    2.80
   6  -2  13   49.70    3.10
  -6   3 -13  128.19    5.20
   3   3 -13  132.69    4.80
   3  -6 -13  121.09    6.20
   6  -3  13  134.69    5.60
   2  -6 -13   35.40    3.20
   2  -6 -13   34.50    3.30
  -6   4 -13   35.00    2.30
   4   2 -13   37.00    2.10
   6  -4  13   36.40    2.70
   5   1 -13  105.89    5.70
  -6   5 -13  111.29    4.30
   5   1 -13  109.99    4.10
   1  -6 -13  106.09    5.50
   1  -6 -13  109.49    5.30
   1  -6 -13  108.79    4.70
   6  -5  13  109.39    4.70
   6   0 -13    1.40    0.60
   0  -6 -13    0.70    1.10
   6  -6  13    0.50    0.50
   3   4 -13   38.70    1.80
  -7   3 -13   36.20    2.10
   4   3 -13   66.89    2.70
  -7   4 -13   63.29    3.10
   7  -4  13   63.09    3.20
   0   0 -14    0.00    0.80
   0   0 -14   -0.60    0.80
  -1   0 -14   43.20    3.40
   1  -1 -14   42.70    3.10
   1  -1 -14   48.20    4.50
   0   1 -14   43.70    3.10
  -1   0 -14   47.70    3.20
   0   1 -14   54.49    3.40
   1  -1 -14   45.10    3.70
   0  -1  14   47.30    3.90
   1   0 -14  244.38    9.90
   0  -1 -14  243.08   11.30
   0  -1 -14  249.28   10.30
   0  -1 -14  249.68    9.40
   1   0 -14  244.98   11.00
   0  -1 -14  236.38   10.00
  -1   1 -14  244.28    9.70
   1   0 -14  258.07    9.50
  -1   1 -14  246.68    9.40
   1  -1  14  243.58   10.30
  -1   0  14  248.08    9.80
  -1   2 -14  108.69    5.10
  -1  -1 -14  106.59    5.10
   2  -1 -14  113.39    5.20
  -1  -1 -14  106.29    6.50
  -1  -1 -14  102.59    5.60
   2  -1 -14  101.09    5.50
   2  -1 -14  104.49    6.80
  -1  -1 -14  111.79    6.20
   1   1  14   99.69    5.10
   1  -2  14  107.19    5.80
  -2  -1 -14   62.39    4.40
  -2  -1 -14   50.59    3.90
  -1   3 -14   52.39    3.10
   3  -2 -14   51.69    3.30
  -2  -1 -14   50.59    3.70
   3  -2 -14   50.89    3.80
  -2  -1 -14   54.69    3.30
   3  -2 -14   46.30    4.80
   2   1  14   53.29    3.60
   1  -3  14   49.50    3.60
  -2   0 -14    9.60    1.80
   2  -2 -14    4.40    1.20
  -2   0 -14    7.20    1.90
   2  -2 -14    9.50    1.80
   0   2 -14    8.40    1.70
   2   0  14    6.90    1.50
   0  -2  14   11.70    2.10
  -2   1 -14   37.20    3.10
   1  -2 -14   36.00    2.80
   1  -2 -14   37.00    4.30
   1  -2 -14   44.80    4.00
   1   1 -14   38.70    2.90
   1  -2 -14   39.20    3.50
  -2   1 -14   38.60    2.90
   2  -1  14   43.10    3.90
   2  -1  14   40.30    3.00
   0  -2 -14  110.49    6.20
   2   0 -14  104.89    6.50
   0  -2 -14   98.89    6.60
   2   0 -14  107.09    5.50
   0  -2 -14  102.49    5.60
   0  -2 -14  109.49    5.00
  -2   2 -14  107.99    5.10
   2   0 -14  107.39    5.10
   2  -2  14  110.69    6.00
  -1  -2 -14   65.19    4.60
   3  -1 -14   56.09    5.10
   3  -1 -14   58.89    3.40
  -1  -2 -14   56.89    4.80
   3  -1 -14   53.99    3.80
  -1  -2 -14   58.09    3.40
  -1  -2 -14   55.09    3.90
  -2   3 -14   58.89    3.30
   1   2  14   53.89    3.60
   2  -3  14   54.89    3.90
  -2  -2 -14    1.10    0.90
   4  -2 -14    0.60    1.00
   4  -2 -14   -0.50    1.40
  -2  -2 -14    1.50    0.80
  -2  -2 -14    2.70    1.40
   4  -2 -14    0.10    0.90
  -2  -2 -14    2.00    1.00
   2   2  14    3.10    1.30
   2  -4  14    3.30    1.10
  -3  -2 -14   80.69    4.40
   5  -3 -14   88.69    4.00
  -3  -2 -14   87.99    4.40
  -3  -2 -14   83.19    4.90
   5  -3 -14   85.29    4.50
  -2   5 -14   84.79    3.30
   2  -5  14   86.59    4.30
   3   2  14   88.19    4.30
  -3  -1 -14   16.30    2.20
   4  -3 -14   11.40    2.20
  -1   4 -14   16.60    1.50
  -3  -1 -14   11.30    2.40
   4  -3 -14   13.20    1.80
  -3  -1 -14   17.30    1.90
   3   1  14   17.60    2.30
   1  -4  14   16.00    2.20
   3  -3 -14   22.00    3.70
  -3   0 -14   29.90    2.50
   3  -3 -14   24.10    2.90
   0   3 -14   28.60    1.90
   0   3 -14   30.10    2.20
   3  -3 -14   26.00    2.30
  -3   0 -14   27.50    2.70
   3   0  14   29.90    2.80
  -3   1 -14   10.00    1.90
   2  -3 -14    7.50    1.60
   2  -3 -14    9.50    1.70
   1   2 -14   10.50    1.40
   1   2 -14   11.50    1.70
  -3   1 -14   11.70    1.90
   2  -3 -14   16.80    2.90
   3  -1  14   16.60    3.10
   3  -1  14   13.10    2.20
   2   1 -14  175.98    9.00
   1  -3 -14  185.78    9.50
   1  -3 -14  200.88    8.50
   2   1 -14  196.18    7.40
   1  -3 -14  189.78    7.20
   2   1 -14  195.48    7.60
   2   1 -14  183.88    6.70
  -3   2 -14  196.08    7.60
   1  -3 -14  193.68    8.30
   3  -2  14  204.68    8.50
   3  -2  14  189.58    7.70
   3   0 -14   69.79    5.80
   0  -3 -14   62.89    5.20
   0  -3 -14   79.59    5.00
   3   0 -14   70.79    4.10
   0  -3 -14   68.49    4.30
   3   0 -14   68.89    3.70
  -3   3 -14   68.79    3.70
   3  -3  14   67.89    3.70
   3  -3  14   71.49    4.40
  -3   4 -14   61.79    3.10
   4  -1 -14   64.69    5.60
  -1  -3 -14   61.59    3.80
  -1  -3 -14   56.99    4.60
   4  -1 -14   60.59    3.30
   4  -1 -14   60.49    3.80
  -1  -3 -14   72.89    4.60
   1   3  14   56.89    3.70
   3  -4  14   62.49    3.80
  -2  -3 -14  130.29    5.70
  -2  -3 -14  130.49    5.90
   5  -2 -14  131.09    5.20
   5  -2 -14  119.19    5.60
   5  -2 -14  138.49    7.40
  -2  -3 -14  123.59    6.50
   2   3  14  126.69    5.60
   3  -5  14  126.99    5.60
   6  -3 -14   15.10    4.40
  -3  -3 -14   10.60    1.90
   6  -3 -14    6.70    1.30
  -3  -3 -14   10.60    2.00
   3   3  14    9.70    1.70
   3  -6  14    8.20    1.40
   5  -4 -14   21.30    1.80
  -4  -1 -14   25.00    2.30
   5  -4 -14   16.30    3.70
  -1   5 -14   23.20    1.50
   5  -4 -14   19.60    2.30
   1  -5  14   27.90    2.10
   4   1  14   24.40    2.20
  -4   0 -14   22.50    2.00
   4  -4 -14   15.00    3.20
   4  -4 -14   21.30    1.90
   4  -4 -14   19.20    2.40
   0   4 -14   23.90    1.70
  -4   0 -14   21.30    2.20
   4   0  14   23.60    2.40
   4   0  14   22.90    2.80
  -4   1 -14   15.60    2.00
   3  -4 -14   14.70    1.70
   3  -4 -14   12.70    2.20
   1   3 -14   14.10    1.50
  -4   1 -14   14.80    1.90
   4  -1  14   15.50    2.20
   4  -1  14   15.80    2.60
  -4   2 -14   12.20    1.80
   2  -4 -14   18.50    3.00
   2   2 -14   15.30    1.60
   2  -4 -14    9.50    2.00
   2   2 -14   13.00    1.50
   4  -2  14   13.50    2.10
   4  -2  14   14.20    2.40
   1  -4 -14   83.39    4.90
   3   1 -14   62.89    5.40
   1  -4 -14   75.29    4.30
   3   1 -14   73.69    3.20
   3   1 -14   73.29    3.50
   1  -4 -14   71.79    5.20
  -4   3 -14   73.79    3.70
   3   1 -14   78.09    3.70
   4  -3  14   72.19    4.20
   4  -3  14   73.49    3.90
   0  -4 -14   86.49    4.40
   4   0 -14   82.69    4.20
  -4   4 -14   84.39    3.80
   0  -4 -14   96.29    5.10
   4   0 -14   82.79    6.00
   0  -4 -14   83.59    5.40
   4   0 -14   84.29    3.90
   4   0 -14   84.99    3.50
   4  -4  14   83.59    4.10
   4  -4  14   84.09    4.30
   5  -1 -14    7.20    2.00
  -1  -4 -14    6.60    2.00
   5  -1 -14    7.90    1.00
  -1  -4 -14    8.00    1.50
  -1  -4 -14   13.50    2.50
   5  -1 -14   15.00    3.50
   5  -1 -14    8.10    1.40
   4  -5  14    9.20    1.60
  -5   0 -14    1.40    0.60
   0   5 -14    2.40    0.60
   5   0  14    2.30    0.90
   1   4 -14  108.99    4.00
   4  -5 -14  106.09    5.70
   4  -5 -14  104.29    4.60
  -5   1 -14  103.09    4.60
  -5   1 -14  111.99    4.50
   5  -1  14  108.29    4.70
   5  -1  14   99.49    4.40
   2   3 -14   95.49    3.70
  -5   2 -14   99.79    4.30
   3  -5 -14   94.09    4.30
   5  -2  14   94.59    4.40
   5  -2  14   92.59    4.30
   2  -5 -14   34.20    3.40
   2  -5 -14   41.00    2.60
   2  -5 -14   41.10    3.40
  -5   3 -14   38.80    2.50
   3   2 -14   37.60    2.00
   5  -3  14   37.40    2.60
   5  -3  14   38.30    2.60
   4   1 -14   13.10    2.80
   4   1 -14   21.10    1.50
   1  -5 -14   17.60    2.50
   1  -5 -14   24.40    3.00
  -5   4 -14   19.00    1.70
   4   1 -14   19.90    1.50
   5  -4  14   18.60    1.80
   5  -4  14   17.90    1.80
   0  -5 -14   15.10    2.50
   5   0 -14   13.40    2.00
   0  -5 -14    9.40    1.80
   5   0 -14    8.40    1.10
   5   0 -14    8.10    2.50
   5  -5  14    9.70    1.40
   3   3 -14  102.29    4.00
  -6   3 -14  112.49    4.30
   6  -3  14  113.79    4.50
   0   0 -15  126.89    6.00
   0   0 -15  147.29    6.70
   0   0 -15  132.99    5.70
   0   0  15  128.59    6.30
  -1   0 -15    3.30    1.10
   1  -1 -15    3.30    1.10
   1  -1 -15    2.80    1.10
  -1   0 -15    3.10    1.00
   0   1 -15    3.70    1.10
   1  -1 -15    7.60    2.40
   0  -1  15    4.10    1.30
  -1   1  15    7.40    1.90
   1   0  15    4.10    1.50
   0  -1 -15   71.19    5.00
   0  -1 -15   73.49    3.80
  -1   1 -15   74.69    4.00
   1   0 -15   71.69    4.10
   1   0 -15   78.79    4.90
   1   0 -15   73.99    3.80
   0  -1 -15   69.89    4.30
  -1   1 -15   73.29    3.90
   1  -1  15   76.69    4.60
   2  -1 -15   52.19    3.60
   2  -1 -15   52.29    4.40
   2  -1 -15   51.79    3.10
  -1  -1 -15   55.99    3.20
  -1  -1 -15   50.39    3.50
  -1  -1 -15   59.59    4.10
  -1   2 -15   52.49    3.10
   1  -2  15   50.19    3.60
   3  -2 -15   10.50    2.00
   3  -2 -15    9.70    1.60
  -1   3 -15   14.70    1.50
  -2  -1 -15   12.00    1.90
  -2  -1 -15   13.80    1.70
   2   1  15   14.40    1.90
   1  -3  15   15.90    2.00
   0   2 -15  126.29    5.10
   2  -2 -15  120.69    5.80
  -2   0 -15  115.49    5.50
   2  -2 -15  115.59    6.70
   2  -2 -15  125.19    5.20
  -2   0 -15  127.79    5.20
   2   0  15  131.49    6.20
   2   0  15  104.99    5.60
   0  -2  15  128.69    5.50
   1  -2 -15  155.18    8.00
  -2   1 -15  168.98    6.50
   1   1 -15  163.68    6.30
   1   1 -15  160.48    6.30
   1  -2 -15  161.28    6.30
   1   1 -15  166.48    7.90
  -2   1 -15  150.98    6.50
   1  -2 -15  153.48    6.90
   2  -1  15  159.08    7.10
  -2   2 -15  122.09    5.10
   0  -2 -15  123.99    5.00
   2   0 -15  118.99    5.10
   0  -2 -15  114.69    6.50
   2   0 -15  117.89    5.30
   2   0 -15  109.89    6.50
   0  -2 -15  121.49    5.70
   2  -2  15  119.99    5.70
  -1  -2 -15   11.80    1.50
   3  -1 -15   11.80    1.90
   3  -1 -15   10.60    3.40
   3  -1 -15   10.60    1.60
  -2   3 -15   11.50    1.50
  -1  -2 -15   10.30    1.90
  -1  -2 -15   14.20    2.40
  -1  -2 -15   14.10    2.60
   2  -3  15   11.60    1.90
   4  -2 -15   89.99    4.40
  -2  -2 -15   95.69    4.50
   4  -2 -15   88.19    5.80
   4  -2 -15   97.09    4.10
  -2  -2 -15  100.39    5.00
   2   2  15   95.89    4.20
   2  -4  15   99.29    4.50
   4  -3 -15  136.29    6.90
  -3  -1 -15  129.69    5.60
   4  -3 -15  133.99    5.10
  -3  -1 -15  131.89    5.50
   4  -3 -15  134.99    5.60
   3   1  15  137.59    5.40
   1  -4  15  141.19    5.40
   3   1  15  132.69    5.80
   3  -3 -15   22.60    1.90
  -3   0 -15   24.30    1.90
   3  -3 -15   17.30    3.00
  -3   0 -15   25.40    2.20
   3  -3 -15   21.00    2.30
   3   0  15   23.30    2.10
   3   0  15   25.90    2.80
   1   2 -15   76.59    3.50
   2  -3 -15   75.29    4.20
   2  -3 -15   73.99    3.40
  -3   1 -15   82.79    3.80
   2  -3 -15   69.79    5.00
   3  -1  15   74.29    3.80
   3  -1  15   78.69    4.30
   1  -3 -15   60.09    3.70
   1  -3 -15   49.40    3.40
  -3   2 -15   50.59    2.90
   2   1 -15   50.99    2.80
   1  -3 -15   54.79    2.70
   1  -3 -15   46.60    4.00
   3  -2  15   53.69    3.50
   0  -3 -15   18.60    2.10
   3   0 -15   20.00    1.80
   3   0 -15   22.40    2.00
   3   0 -15   13.40    3.40
   0  -3 -15   17.70    2.60
  -3   3 -15   19.70    1.70
   0  -3 -15   26.80    2.80
   3  -3  15   19.40    2.10
  -1  -3 -15    9.30    2.20
   4  -1 -15    6.40    1.60
  -1  -3 -15    3.60    0.90
   4  -1 -15    3.90    0.80
   4  -1 -15    3.80    1.50
  -1  -3 -15    4.90    1.70
   3  -4  15    4.50    1.40
   4  -4 -15   48.10    3.50
   4  -4 -15   46.20    3.80
  -4   0 -15   54.29    3.10
   4   0  15   54.19    2.90
   3  -4 -15   38.70    2.60
  -4   1 -15   47.60    2.50
  -4   1 -15   42.10    2.40
   1   3 -15   52.99    2.70
   4  -1  15   40.60    2.50
   4  -1  15   39.50    2.60
   2  -4 -15   10.10    2.30
  -4   2 -15   14.00    1.60
   2  -4 -15   13.20    1.80
   4  -2  15   14.50    1.60
   4  -2  15   13.70    1.70
   1  -4 -15   53.09    3.10
   3   1 -15   43.30    4.60
   1  -4 -15   48.00    2.80
  -4   3 -15   48.20    2.50
   1  -4 -15   44.40    3.50
   3   1 -15   47.00    2.30
   4  -3  15   47.00    2.80
   4  -3  15   43.10    3.40
   0  -4 -15   24.30    2.50
   4   0 -15   28.30    2.10
   0  -4 -15   27.40    2.50
   4  -4  15   24.40    1.90
   0   0 -16    1.30    0.60
   0   0 -16   -0.30    0.60
   0   0  16    0.40    0.70
  -1   0 -16   29.50    2.20
   0   1 -16   28.50    2.00
   1  -1 -16   26.80    2.00
   1  -1 -16   27.70    2.20
  -1   0 -16   28.90    2.00
   1  -1 -16   32.30    2.90
   1   0  16   26.50    2.40
   0  -1 -16    2.70    0.80
  -1   1 -16    4.20    0.90
   1   0 -16    2.90    0.80
   0  -1 -16    2.50    0.80
   0   1  16    1.90    1.00
   1  -1  16    3.40    1.00
   2  -1 -16   10.70    1.50
  -1   2 -16    8.90    1.20
  -1  -1 -16    7.70    1.20
  -1  -1 -16    8.50    1.40
   2  -1 -16    6.50    1.30
   1  -2  16    7.10    1.50
   1   1  16    6.70    1.80
   2  -2 -16    0.70    0.60
  -2   0 -16    1.20    0.60
  -2   0 -16    1.50    0.60
   2  -2 -16    0.80    0.60
   2  -2 -16    0.50    0.80
   2   0  16    0.20    0.70
   1  -2 -16    8.90    1.50
   1  -2 -16   13.30    2.10
   1   1 -16    8.90    1.20
  -2   1 -16    8.70    1.30
   1  -2 -16    8.40    1.30
   2  -1  16    9.90    1.70
   0  -2 -16   15.50    1.80
  -2   2 -16   15.10    1.40
   2   0 -16   15.80    1.50
   2  -2  16   15.40    1.70
   0   2  16   11.90    2.10
   0   0   0    0.00    0.00

_computing_structure_solution     'SHELXT 2014/5 (Sheldrick, 2014)'
;
_shelx_hkl_checksum              65614
_olex2_submission_special_instructions 'No special instructions were received'
loop_
_space_group_symop_operation_xyz
'x, y, z'
'-y, x-y, z+1/3'
'-x+y, -x, z+2/3'
loop_
_atom_site_label
_atom_site_type_symbol
_atom_site_fract_x
_atom_site_fract_y
_atom_site_fract_z
_atom_site_U_iso_or_equiv
_atom_site_adp_type
_atom_site_occupancy
_atom_site_site_symmetry_order
_atom_site_calc_flag
_atom_site_refinement_flags_posn
_atom_site_refinement_flags_adp
_atom_site_refinement_flags_occupancy
_atom_site_disorder_assembly
_atom_site_disorder_group
O1 O 0.53085(15) 0.52529(14) 0.65065(8) 0.0261(3) Uani 1 1 d . . . . .
O2 O 0.60284(16) 0.37850(15) 0.55335(9) 0.0276(3) Uani 1 1 d . . . . .
H2 H 0.545(3) 0.300(3) 0.5964(17) 0.041 Uiso 1 1 calc GR . . . .
O3 O 0.70501(15) 0.55971(16) 0.34951(9) 0.0291(3) Uani 1 1 d . . . . .
O4 O 0.92128(15) 0.62909(17) 0.44849(10) 0.0319(3) Uani 1 1 d . . . . .
H4 H 0.9500(17) 0.580(3) 0.4005(18) 0.048 Uiso 1 1 calc GR . . . .
C1 C 0.61769(19) 0.75944(18) 0.48761(11) 0.0190(3) Uani 1 1 d . . . . .
H1 H 0.5694 0.7717 0.5507 0.023 Uiso 1 1 calc R . . . .
C2 C 0.47358(19) 0.67731(19) 0.41378(12) 0.0223(3) Uani 1 1 d . . . . .
H2A H 0.5200 0.6745 0.3478 0.027 Uiso 1 1 calc R . . . .
C3 C 0.3920(2) 0.7841(2) 0.40492(14) 0.0276(4) Uani 1 1 d . . . . .
H3A H 0.2998 0.7321 0.3571 0.033 Uiso 1 1 calc R . . . .
H3B H 0.3450 0.7877 0.4697 0.033 Uiso 1 1 calc R . . . .
C4 C 0.5120(2) 0.9600(2) 0.37158(15) 0.0342(4) Uani 1 1 d . . . . .
H4A H 0.5531 0.9554 0.3042 0.041 Uiso 1 1 calc R . . . .
C5 C 0.6595(2) 1.0395(2) 0.44146(15) 0.0322(4) Uani 1 1 d . . . . .
H5A H 0.6216 1.0546 0.5068 0.039 Uiso 1 1 calc R . . . .
H5B H 0.7405 1.1502 0.4159 0.039 Uiso 1 1 calc R . . . .
C6 C 0.7456(2) 0.9367(2) 0.45393(13) 0.0246(3) Uani 1 1 d . . . . .
H6 H 0.7920 0.9300 0.3888 0.030 Uiso 1 1 calc R . . . .
C7 C 0.3440(2) 0.5002(2) 0.44167(13) 0.0276(4) Uani 1 1 d . . . . .
H7A H 0.3053 0.4985 0.5091 0.041 Uiso 1 1 calc GR . . . .
H7B H 0.3933 0.4292 0.4379 0.041 Uiso 1 1 calc GR . . . .
H7C H 0.2505 0.4594 0.3959 0.041 Uiso 1 1 calc GR . . . .
C8 C 0.4247(3) 1.0613(3) 0.3658(2) 0.0537(6) Uani 1 1 d . . . . .
H8A H 0.3360 1.0123 0.3167 0.080 Uiso 1 1 calc GR . . . .
H8B H 0.5043 1.1750 0.3467 0.080 Uiso 1 1 calc GR . . . .
H8C H 0.3777 1.0615 0.4304 0.080 Uiso 1 1 calc GR . . . .
C9 C 0.8850(2) 1.0213(2) 0.52632(15) 0.0316(4) Uani 1 1 d . . . . .
H9 H 0.8574 1.0376 0.5912 0.038 Uiso 1 1 calc R . . . .
C10 C 1.0418(3) 1.0747(3) 0.5079(2) 0.0468(5) Uani 1 1 d . . . . .
H10A H 1.0751 1.0610 0.4440 0.056 Uiso 1 1 calc R . . . .
H10B H 1.1219 1.1271 0.5584 0.056 Uiso 1 1 calc R . . . .
C11 C 0.70628(18) 0.66169(19) 0.51338(11) 0.0197(3) Uani 1 1 d . . . . .
H11 H 0.8036 0.7382 0.5545 0.024 Uiso 1 1 calc R . . . .
C12 C 0.60210(19) 0.51335(19) 0.57873(11) 0.0202(3) Uani 1 1 d . . . . .
C13 C 0.77654(19) 0.61216(19) 0.42775(12) 0.0210(3) Uani 1 1 d . . . . .
loop_
_atom_site_aniso_label
_atom_site_aniso_U_11
_atom_site_aniso_U_22
_atom_site_aniso_U_33
_atom_site_aniso_U_23
_atom_site_aniso_U_13
_atom_site_aniso_U_12
O1 0.0350(6) 0.0247(5) 0.0226(6) 0.0036(4) 0.0077(5) 0.0179(5)
O2 0.0395(7) 0.0222(5) 0.0256(6) 0.0040(5) 0.0088(5) 0.0187(5)
O3 0.0333(6) 0.0417(7) 0.0220(6) -0.0048(5) -0.0021(5) 0.0261(6)
O4 0.0250(6) 0.0431(7) 0.0321(7) -0.0124(6) -0.0029(5) 0.0205(5)
C1 0.0200(7) 0.0176(7) 0.0192(7) 0.0002(6) 0.0006(6) 0.0091(6)
C2 0.0234(7) 0.0230(7) 0.0211(7) -0.0008(6) -0.0014(6) 0.0120(6)
C3 0.0269(8) 0.0306(9) 0.0291(8) 0.0001(7) -0.0031(7) 0.0172(7)
C4 0.0372(9) 0.0315(9) 0.0392(10) 0.0103(8) 0.0003(8) 0.0210(8)
C5 0.0334(9) 0.0211(8) 0.0434(10) 0.0054(7) 0.0025(8) 0.0144(7)
C6 0.0249(8) 0.0200(7) 0.0275(8) 0.0033(6) 0.0037(6) 0.0101(6)
C7 0.0242(8) 0.0245(8) 0.0307(9) -0.0012(7) -0.0069(6) 0.0096(6)
C8 0.0495(12) 0.0384(11) 0.0822(19) 0.0101(11) -0.0116(12) 0.0288(10)
C9 0.0302(9) 0.0193(8) 0.0400(11) -0.0018(7) -0.0031(7) 0.0083(7)
C10 0.0292(9) 0.0358(10) 0.0627(15) 0.0019(10) -0.0049(9) 0.0066(8)
C11 0.0204(7) 0.0196(7) 0.0190(7) 0.0001(6) 0.0004(6) 0.0099(6)
C12 0.0225(7) 0.0208(7) 0.0191(7) 0.0003(6) -0.0017(6) 0.0120(6)
C13 0.0219(7) 0.0193(7) 0.0217(8) 0.0016(6) 0.0026(6) 0.0102(6)
loop_
_atom_type_symbol
_atom_type_description
_atom_type_scat_dispersion_real
_atom_type_scat_dispersion_imag
_atom_type_scat_source
C C 0.0181 0.0091 'International Tables Vol C Tables 4.2.6.8 and 6.1.1.4'
H H 0.0000 0.0000 'International Tables Vol C Tables 4.2.6.8 and 6.1.1.4'
O O 0.0492 0.0322 'International Tables Vol C Tables 4.2.6.8 and 6.1.1.4'
loop_
_geom_angle_atom_site_label_1
_geom_angle_atom_site_label_2
_geom_angle_atom_site_label_3
_geom_angle
_geom_angle_site_symmetry_1
_geom_angle_site_symmetry_3
_geom_angle_publ_flag
C12 O2 H2 109.5 . . ?
C13 O4 H4 109.5 . . ?
C2 C1 H1 106.3 . . ?
C2 C1 C6 110.88(12) . . ?
C2 C1 C11 116.42(12) . . ?
C6 C1 H1 106.3 . . ?
C11 C1 H1 106.3 . . ?
C11 C1 C6 110.05(12) . . ?
C1 C2 H2A 108.1 . . ?
C3 C2 C1 108.80(13) . . ?
C3 C2 H2A 108.1 . . ?
C7 C2 C1 113.61(13) . . ?
C7 C2 H2A 108.1 . . ?
C7 C2 C3 109.92(13) . . ?
C2 C3 H3A 109.0 . . ?
C2 C3 H3B 109.0 . . ?
H3A C3 H3B 107.8 . . ?
C4 C3 C2 112.82(14) . . ?
C4 C3 H3A 109.0 . . ?
C4 C3 H3B 109.0 . . ?
C3 C4 H4A 108.4 . . ?
C3 C4 C5 109.90(14) . . ?
C3 C4 C8 110.49(16) . . ?
C5 C4 H4A 108.4 . . ?
C5 C4 C8 111.21(18) . . ?
C8 C4 H4A 108.4 . . ?
C4 C5 H5A 109.0 . . ?
C4 C5 H5B 109.0 . . ?
C4 C5 C6 113.00(15) . . ?
H5A C5 H5B 107.8 . . ?
C6 C5 H5A 109.0 . . ?
C6 C5 H5B 109.0 . . ?
C1 C6 H6 108.7 . . ?
C5 C6 C1 109.57(13) . . ?
C5 C6 H6 108.7 . . ?
C9 C6 C1 111.89(14) . . ?
C9 C6 C5 109.23(14) . . ?
C9 C6 H6 108.7 . . ?
C2 C7 H7A 109.5 . . ?
C2 C7 H7B 109.5 . . ?
C2 C7 H7C 109.5 . . ?
H7A C7 H7B 109.5 . . ?
H7A C7 H7C 109.5 . . ?
H7B C7 H7C 109.5 . . ?
C4 C8 H8A 109.5 . . ?
C4 C8 H8B 109.5 . . ?
C4 C8 H8C 109.5 . . ?
H8A C8 H8B 109.5 . . ?
H8A C8 H8C 109.5 . . ?
H8B C8 H8C 109.5 . . ?
C6 C9 H9 117.1 . . ?
C10 C9 C6 125.8(2) . . ?
C10 C9 H9 117.1 . . ?
C9 C10 H10A 120.0 . . ?
C9 C10 H10B 120.0 . . ?
H10A C10 H10B 120.0 . . ?
C1 C11 H11 105.5 . . ?
C12 C11 C1 112.48(12) . . ?
C12 C11 H11 105.5 . . ?
C13 C11 C1 116.66(13) . . ?
C13 C11 H11 105.5 . . ?
C13 C11 C12 110.23(13) . . ?
O1 C12 O2 124.41(15) . . ?
O1 C12 C11 120.94(13) . . ?
O2 C12 C11 114.59(13) . . ?
O3 C13 O4 124.10(15) . . ?
O3 C13 C11 123.72(14) . . ?
O4 C13 C11 112.17(13) . . ?
loop_
_geom_bond_atom_site_label_1
_geom_bond_atom_site_label_2
_geom_bond_distance
_geom_bond_site_symmetry_2
_geom_bond_publ_flag
O1 C12 1.217(2) . ?
O2 H2 0.88(3) . ?
O2 C12 1.3102(19) . ?
O3 C13 1.218(2) . ?
O4 H4 0.91(3) . ?
O4 C13 1.312(2) . ?
C1 H1 1.0000 . ?
C1 C2 1.540(2) . ?
C1 C6 1.550(2) . ?
C1 C11 1.549(2) . ?
C2 H2A 1.0000 . ?
C2 C3 1.534(2) . ?
C2 C7 1.532(2) . ?
C3 H3A 0.9900 . ?
C3 H3B 0.9900 . ?
C3 C4 1.524(2) . ?
C4 H4A 1.0000 . ?
C4 C5 1.525(3) . ?
C4 C8 1.531(3) . ?
C5 H5A 0.9900 . ?
C5 H5B 0.9900 . ?
C5 C6 1.541(2) . ?
C6 H6 1.0000 . ?
C6 C9 1.502(2) . ?
C7 H7A 0.9800 . ?
C7 H7B 0.9800 . ?
C7 H7C 0.9800 . ?
C8 H8A 0.9800 . ?
C8 H8B 0.9800 . ?
C8 H8C 0.9800 . ?
C9 H9 0.9500 . ?
C9 C10 1.315(3) . ?
C10 H10A 0.9500 . ?
C10 H10B 0.9500 . ?
C11 H11 1.0000 . ?
C11 C12 1.518(2) . ?
C11 C13 1.516(2) . ?
loop_
_geom_hbond_atom_site_label_D
_geom_hbond_atom_site_label_H
_geom_hbond_atom_site_label_A
_geom_hbond_distance_DH
_geom_hbond_distance_HA
_geom_hbond_distance_DA
_geom_hbond_angle_DHA
_geom_hbond_site_symmetry_A
O2 H2 O3 0.88 1.73 2.6136(17) 177.1 2_655
O4 H4 O1 0.91 1.71 2.6246(16) 174.3 3_664
