#------------------------------------------------------------------------------
#$Date: 2019-11-23 14:17:16 +0200 (Sat, 23 Nov 2019) $
#$Revision: 233581 $
#$URL: file:///home/coder/svn-repositories/cod/cif/4/34/91/4349105.cif $
#------------------------------------------------------------------------------
#
# This file is available in the Crystallography Open Database (COD),
# http://www.crystallography.net/
#
# All data on this site have been placed in the public domain by the
# contributors.
#
data_4349105
loop_
_publ_author_name
'Valverde-Mu\~noz, Francisco Javier'
'Seredyuk, Maksym'
'Mu\~noz, M Carmen'
'Znovjyak, Kateryna'
'Fritsky, Igor O.'
'Real, Jos\'e Antonio'
_publ_section_title
;
 Strong Cooperative Spin Crossover in 2D and 3D
 Fe<sup>II</sup>-M<sup>I,II</sup> Hofmann-Like Coordination Polymers Based
 on 2-Fluoropyrazine.
;
_journal_issue                   20
_journal_name_full               'Inorganic chemistry'
_journal_page_first              10654
_journal_page_last               10665
_journal_paper_doi               10.1021/acs.inorgchem.6b01901
_journal_volume                  55
_journal_year                    2016
_chemical_formula_sum            'C12 H6 F2 Fe N8 Pt'
_chemical_formula_weight         551.19
_space_group_crystal_system      orthorhombic
_space_group_IT_number           53
_space_group_name_Hall           '-P 2ac 2'
_space_group_name_H-M_alt        'P m n a'
_atom_sites_solution_hydrogens   geom
_audit_creation_method           SHELXL-2014
_cell_angle_alpha                90
_cell_angle_beta                 90
_cell_angle_gamma                90
_cell_formula_units_Z            2
_cell_length_a                   7.2572(3)
_cell_length_b                   6.9861(3)
_cell_length_c                   14.9922(6)
_cell_measurement_reflns_used    2798
_cell_measurement_temperature    120(1)
_cell_measurement_theta_max      29.7210
_cell_measurement_theta_min      3.2030
_cell_volume                     760.10(5)
_computing_cell_refinement       'CrysAlisPro 2015'
_computing_data_collection       'CrysAlisPro 2015'
_computing_data_reduction        'CrysAlisPro 2015'
_computing_structure_refinement  'SHELXL-2014 (Sheldrick, 2014)'
_computing_structure_solution    'SHELXS-2014 (Sheldrick, 2014)'
_diffrn_ambient_temperature      120(1)
_diffrn_measured_fraction_theta_full 0.999
_diffrn_measured_fraction_theta_max 0.915
_diffrn_measurement_device_type  'SuperNova Sapphire3'
_diffrn_radiation_type           MoK\a
_diffrn_radiation_wavelength     0.71073
_diffrn_reflns_av_R_equivalents  0.0384
_diffrn_reflns_av_unetI/netI     0.0306
_diffrn_reflns_Laue_measured_fraction_full 0.999
_diffrn_reflns_Laue_measured_fraction_max 0.915
_diffrn_reflns_limit_h_max       5
_diffrn_reflns_limit_h_min       -9
_diffrn_reflns_limit_k_max       9
_diffrn_reflns_limit_k_min       -9
_diffrn_reflns_limit_l_max       19
_diffrn_reflns_limit_l_min       -21
_diffrn_reflns_number            6092
_diffrn_reflns_point_group_measured_fraction_full 0.999
_diffrn_reflns_point_group_measured_fraction_max 0.915
_diffrn_reflns_theta_full        25.000
_diffrn_reflns_theta_max         29.978
_diffrn_reflns_theta_min         2.916
_exptl_absorpt_coefficient_mu    10.181
_exptl_absorpt_correction_T_max  1.00000
_exptl_absorpt_correction_T_min  0.65771
_exptl_absorpt_correction_type   multi-scan
_exptl_absorpt_process_details   'CrysAlisPro 1.171.38.41q'
_exptl_crystal_colour            red
_exptl_crystal_density_diffrn    2.408
_exptl_crystal_description       prismatic
_exptl_crystal_F_000             512
_exptl_crystal_size_max          0.100
_exptl_crystal_size_mid          0.100
_exptl_crystal_size_min          0.060
_refine_diff_density_max         1.122
_refine_diff_density_min         -0.771
_refine_diff_density_rms         0.152
_refine_ls_extinction_method     none
_refine_ls_goodness_of_fit_ref   0.951
_refine_ls_hydrogen_treatment    constr
_refine_ls_matrix_type           full
_refine_ls_number_parameters     69
_refine_ls_number_reflns         1091
_refine_ls_number_restraints     0
_refine_ls_restrained_S_all      0.951
_refine_ls_R_factor_all          0.0318
_refine_ls_R_factor_gt           0.0200
_refine_ls_shift/su_max          0.016
_refine_ls_shift/su_mean         0.002
_refine_ls_structure_factor_coef Fsqd
_refine_ls_weighting_details
'w=1/[\s^2^(Fo^2^)+(0.0254P)^2^+0.9728P] where P=(Fo^2^+2Fc^2^)/3'
_refine_ls_weighting_scheme      calc
_refine_ls_wR_factor_gt          0.0449
_refine_ls_wR_factor_ref         0.0509
_reflns_Friedel_coverage         0.000
_reflns_number_gt                816
_reflns_number_total             1091
_reflns_threshold_expression     'I > 2\s(I)'
_cod_data_source_file            ic6b01901_si_005.cif
_cod_data_source_block           shelx
_cod_database_code               4349105
_shelx_space_group_comment
;
The symmetry employed for this shelxl refinement is uniquely defined
by the following loop, which should always be used as a source of
symmetry information in preference to the above space-group names.
They are only intended as comments.
;
_shelx_estimated_absorpt_t_min   0.429
_shelx_estimated_absorpt_t_max   0.580
_shelxl_version_number           2014-1
_shelx_res_file
;
TITL ja1412 in Pnc2
CELL  0.71073  7.257230  6.986081  14.992222     90.0000    90.0000    90.0000
ZERR 2   0.000286 0.000262   0.000642       0.0000     0.0000     0.0000
LATT   1
SYMM  1/2 - X, - Y, 1/2 + Z
SYMM    X, - Y, - Z
SYMM  1/2 - X,   Y, 1/2 - Z
SFAC  C    H    N    F    FE   PT
UNIT  24   12   16   4    2    2
MERG   2
bond
bond $H
omit -3 180
acta 50
FMAP   2
PLAN   25
L.S.   4
size 0.06 0.10 0.10
WGHT    0.025400    0.972800
FVAR       3.64518
PT    6    0.500000    0.000000    0.500000    10.25000    0.00460    0.00451 =
         0.01193    0.00016    0.00000    0.00000
FE    5    1.000000    0.500000    0.500000    10.25000    0.00426    0.00504 =
         0.01326    0.00186    0.00000    0.00000
N1    3    1.000000    0.570056    0.371337    10.50000    0.00505    0.01213 =
         0.01171    0.00271    0.00000    0.00000
N2    3    0.809404    0.309454    0.480868    11.00000    0.01010    0.01072 =
         0.01748    0.00055   -0.00056    0.00181
N3    3    1.000000    0.672136    0.191260    10.50000    0.03926    0.02785 =
         0.02046    0.00792    0.00000    0.00000
C1    1    1.000000    0.753398    0.345728    10.50000    0.02080    0.01575 =
         0.01985    0.00214    0.00000    0.00000
AFIX  43
H1    2    1.000000    0.850911    0.387956    10.50000   -1.20000
AFIX   0
C2    1    1.000000    0.796071    0.255972    10.50000    0.03157    0.02264 =
         0.02107    0.01113    0.00000    0.00000
C3    1    1.000000    0.488628    0.218467    10.50000    0.02984    0.02625 =
         0.02713   -0.01320    0.00000    0.00000
AFIX  43
H3    2    1.000000    0.393078    0.175275    10.50000   -1.20000
AFIX   0
C4    1    1.000000    0.434745    0.306556    10.50000    0.01799    0.01381 =
         0.02158   -0.00100    0.00000    0.00000
AFIX  43
H4    2    1.000000    0.305667    0.321729    10.50000   -1.20000
AFIX   0
C5    1    0.695143    0.197033    0.484233    11.00000    0.01098    0.00771 =
         0.01738    0.00129   -0.00071    0.00145
F     4    1.000000    0.982690    0.231703    10.50000    0.09495    0.02258 =
         0.02662    0.01261    0.00000    0.00000
HKLF    4

REM  ja1412 in Pnc2
REM R1 =  0.0200 for     816 Fo > 4sig(Fo)  and  0.0318 for all    1091 data
REM     69 parameters refined using      0 restraints

END

WGHT      0.0198      0.3108

REM Highest difference peak  1.122,  deepest hole -0.771,  1-sigma level  0.152
Q1    1   0.5000 -0.0091  0.5587  10.50000  0.05    1.12
Q2    1   0.4506  0.0014  0.6093  11.00000  0.05    0.67
Q3    1   1.0000  0.9977  0.2819  10.50000  0.05    0.65
Q4    1   0.6327  0.1416  0.5030  11.00000  0.05    0.62
Q5    1   1.0000  1.0053  0.1717  10.50000  0.05    0.56
Q6    1   1.0000  0.6427  0.1381  10.50000  0.05    0.55
Q7    1   0.8808  0.3113  0.5031  11.00000  0.05    0.47
Q8    1   0.6929  0.0084  0.4194  11.00000  0.05    0.47
Q9    1   1.0000  0.3408  0.1331  10.50000  0.05    0.47
Q10   1   0.8048  0.2271  0.4595  11.00000  0.05    0.46
Q11   1   0.6381  0.0631  0.4641  11.00000  0.05    0.46
Q12   1   1.0000  1.0726  0.3500  10.50000  0.05    0.46
Q13   1   0.8215  0.0000  0.5000  10.50000  0.05    0.45
Q14   1   0.5000  0.2953  0.4623  10.50000  0.05    0.44
Q15   1   1.0000  0.4589  0.4416  10.50000  0.05    0.42
Q16   1   0.3781  0.0749  0.5437  11.00000  0.05    0.42
Q17   1   1.0485  0.5557  0.4232  11.00000  0.05    0.41
Q18   1   1.1958  0.6347  0.1137  11.00000  0.05    0.40
Q19   1   0.6661  0.5000  0.5000  10.50000  0.05    0.40
Q20   1   1.1164  0.5054  0.4654  11.00000  0.05    0.39
Q21   1   0.5000  0.3236  0.5286  10.50000  0.05    0.39
Q22   1   1.0000  0.2417  0.1625  10.50000  0.05    0.39
Q23   1   1.2226  0.2917  0.1537  11.00000  0.05    0.39
Q24   1   1.0000  0.9386  0.4267  10.50000  0.05    0.38
Q25   1   0.3396 -0.0211  0.5287  11.00000  0.05    0.38
;
_shelx_res_checksum              76383
_shelx_hkl_file
;
   4   0   0 720138. 14948.8   4
   3   0   0 63.8473 144.617   4
   2   0   0 999999. 19032.1   4
   2   0   0 980051. 20115.1   5
  -2   0   0 991857. 19366.2   4
  -3   0   0 71.8514 180.983   4
  -4   0   0 736754. 18159.6   2
  -4   0   0 694316. 15852.4   1
  -4   0   0 735061. 15659.9   4
  -5   0   0 111.937 294.177   1
  -5   0   0-128.551 256.317   4
  -5   0   0 21.0998 552.041   2
  -6   0   0 414892. 14289.4   2
  -6   0   0 419039. 11470.5   1
  -6   0   0 430728. 11276.7   4
  -7   0   0-254.040 768.148   2
  -8   0   0 116115. 8113.67   2
  -9   0   0-2733.62 1605.59   2
   5   0  -1 47836.2 2172.45   4
   4   0   1-44.0806 152.214   4
   4   0  -1-66.2468 262.615   4
   3   0   1 88802.8 2847.09   4
   3   0  -1 85307.1 2577.14   4
   2   0  -1-59.5334 93.3866   4
   2   0   1 17.0694 166.968   4
   2   0  -1-80.7747 152.339   3
   2   0  -1 74.7214 173.465   5
   1   0  -1 67648.3 1876.22   3
   1   0  -1 68221.1 1912.53   5
   1   0   1 67404.4 2024.76   4
  -1   0   1 69134.8 1903.12   3
  -1   0  -1 69918.2 2091.04   4
  -1   0   1 63589.2 1938.47   5
  -2   0   1 47.5111 95.1559   4
  -2   0  -1 76.1633 164.966   4
  -2   0   1-34.8581 178.702   5
  -3   0  -1 84239.1 3078.47   4
  -3   0  -1 89340.9 3402.67   1
  -3   0   1 85984.7 2698.79   4
  -4   0   1 14.6857 175.054   1
  -4   0  -1 199.771 376.435   1
  -4   0   1-50.2309 236.628   4
  -4   0  -1 15.2579 245.072   4
  -4   0   1-82.6134 399.494   2
  -4   0  -1 61.9463 413.993   2
  -5   0  -1 50321.9 3043.24   1
  -5   0  -1 50647.8 2824.21   4
  -5   0  -1 55929.5 4043.47   2
  -5   0   1 53265.9 3976.72   2
  -5   0   1 47039.6 2457.79   1
  -5   0   1 51445.0 2547.84   4
  -6   0   1-504.279 601.795   4
  -6   0  -1 331.033 395.987   4
  -6   0   1 13.4947 748.517   2
  -6   0  -1 17.6733 402.607   1
  -6   0   1 204.016 408.945   1
  -6   0  -1-26.6681 766.395   2
  -7   0   1 46110.3 4585.33   2
  -7   0  -1 44398.7 3200.43   4
  -7   0  -1 39998.1 3087.97   1
  -7   0  -1 40900.7 4289.64   2
  -8   0   1 1477.52 1149.03   2
  -8   0  -1-404.652 938.921   2
  -9   0  -1 28503.3 4361.77   2
  -9   0   1 26529.3 4187.01   2
   4   0   2 144059. 4515.04   4
   3   0   2-325.233 221.305   4
   2   0  -2 15214.4 1004.34   3
   2   0   2 15969.3 1120.92   4
   2   0  -2 18462.9 1125.97   5
   1   0   2 255.522 233.404   4
   1   0  -2-26.7123 99.6792   3
  -1   0   2-30.9722 105.543   3
  -1   0  -2 173.391 248.209   1
  -1   0   2 43.7413 112.492   5
  -1   0  -2 101.772 221.032   4
  -2   0  -2 16277.2 1313.79   1
  -2   0  -2 17020.1 1268.49   4
  -2   0   2 17220.5 1126.93   5
  -2   0   2 15653.6 1029.58   3
  -2   0   2 15643.8 841.596   4
  -3   0   2-67.7924 269.624   5
  -3   0   2 652.086 471.290   2
  -3   0   2-22.9150 130.823   4
  -3   0  -2-8.60158 242.498   1
  -3   0  -2 65.2048 321.384   4
  -3   0  -2 1062.87 551.918   2
  -4   0  -2 148547. 5206.55   4
  -4   0  -2 150106. 6158.82   2
  -4   0   2 147056. 4238.10   4
  -4   0   2 145789. 6145.38   2
  -4   0  -2 143086. 5456.84   1
  -4   0   2 141843. 3961.49   1
  -5   0  -2-275.684 493.274   1
  -5   0  -2-127.070 480.668   2
  -5   0  -2-193.161 323.518   4
  -5   0   2 71.1725 257.943   4
  -5   0   2-74.7559 478.645   2
  -5   0   2 127.194 204.114   1
  -6   0  -2 172399. 8312.36   2
  -6   0   2 163522. 5566.45   4
  -6   0  -2 160763. 6737.19   1
  -6   0   2 175964. 8434.52   2
  -6   0   2 165275. 5017.21   1
  -6   0  -2 168220. 6626.33   4
  -7   0  -2 417.948 972.323   2
  -7   0  -2-939.089 620.135   1
  -7   0  -2 385.820 479.138   4
  -7   0   2 8.40095 651.075   2
  -8   0  -2 52495.7 5341.32   2
  -8   0   2 57709.2 5618.38   2
  -9   0  -2 542.544 1011.86   2
  -9   0   2 683.546 1089.91   2
   3   0   3 144797. 4761.05   4
   2   0   3 180.563 269.506   4
   2   0  -3-5.80949 148.059   5
   2   0  -3 82.0658 179.038   3
   1   0  -3 140937. 3633.93   1
   1   0   3 149141. 4685.72   4
   0   0  -3-19.6392 207.906   1
   0   0   3 178.083 228.878   1
  -1   0  -3 146401. 4529.11   1
  -1   0   3 142988. 3618.09   1
  -1   0  -3 137936. 4676.24   4
  -1   0   3 143435. 3744.07   3
  -2   0  -3 170.711 302.381   4
  -2   0   3 157.452 153.542   5
  -2   0   3 128.930 176.654   3
  -2   0  -3-29.4787 255.660   1
  -3   0   3 141778. 4540.49   3
  -3   0   3 136984. 3882.88   4
  -3   0  -3 149543. 5415.30   2
  -3   0  -3 140599. 5263.45   1
  -3   0  -3 146671. 5203.34   4
  -3   0   3 141957. 4704.94   5
  -3   0   3 144346. 5404.69   2
  -4   0  -3 487.291 492.769   2
  -4   0   3 188.148 207.231   4
  -4   0  -3 163.071 524.268   4
  -4   0   3-215.216 392.787   2
  -4   0   3 277.531 281.912   5
  -4   0  -3 108.904 407.863   1
  -5   0   3 87533.5 5188.30   2
  -5   0   3 77754.0 2357.59   1
  -5   0  -3 84994.8 4557.48   1
  -5   0  -3 87231.2 4412.51   4
  -5   0  -3 86606.4 5100.03   2
  -5   0   3 87514.3 3289.69   4
  -6   0   3-28.1750 288.798   4
  -6   0  -3 101.374 771.776   2
  -6   0  -3 602.189 538.841   4
  -6   0  -3 55.0583 453.594   1
  -6   0   3 371.692 762.542   2
  -7   0   3 61886.8 5371.49   2
  -7   0  -3 63710.2 4507.27   1
  -7   0  -3 66740.9 4396.69   4
  -7   0  -3 68110.7 5546.67   2
  -8   0   3-1043.16 1029.57   2
  -8   0  -3-373.275 1121.77   2
  -9   0   3 49156.1 5771.75   2
  -9   0  -3 43804.4 5280.49   2
   2   0  -4 250563. 5704.44   1
   2   0   4 246728. 7390.71   4
   1   0  -4-111.341 184.731   1
   1   0   4 341.914 332.139   4
   0   0  -4 989889. 20513.1   1
  -1   0   4 110.214 170.398   2
  -1   0   4 269.152 195.788   1
  -1   0  -4-55.9473 303.974   1
  -1   0  -4 78.5746 329.873   4
  -1   0  -4 191.159 177.867   2
  -2   0  -4 244611. 6656.43   2
  -2   0   4 244551. 6193.19   5
  -2   0   4 247736. 6726.48   2
  -2   0   4 246170. 6218.74   3
  -2   0   4 240799. 5462.10   1
  -2   0  -4 247823. 7582.42   4
  -2   0  -4 249091. 7421.66   1
  -3   0  -4 51.3143 269.957   2
  -3   0  -4 95.6206 345.324   1
  -3   0  -4 199.437 309.458   4
  -3   0   4-275.670 386.226   2
  -3   0   4 48.4186 206.875   3
  -3   0   4 112.601 239.060   5
  -4   0  -4 299994. 9364.99   4
  -4   0   4 284707. 8131.78   3
  -4   0   4 293269. 7225.36   4
  -4   0   4 310073. 9814.37   2
  -4   0  -4 289843. 9441.43   2
  -4   0  -4 295441. 9482.39   1
  -4   0   4 290772. 8559.61   5
  -5   0   4-745.748 541.993   5
  -5   0   4-492.622 596.830   2
  -5   0  -4 204.603 532.498   1
  -5   0   4-78.8932 206.686   4
  -5   0  -4 78.4809 470.444   4
  -5   0  -4-139.046 473.775   2
  -6   0   4 208332. 6436.41   4
  -6   0  -4 225861. 8658.27   4
  -6   0  -4 220889. 8831.38   1
  -6   0  -4 221420. 9582.69   2
  -6   0   4 218554. 9728.62   2
  -7   0  -4-896.484 717.946   1
  -7   0  -4-396.155 663.819   2
  -7   0  -4 695.289 636.561   4
  -7   0   4-1526.09 1028.97   2
  -8   0   4 74343.2 6469.54   2
  -8   0  -4 72232.8 6242.99   2
  -9   0  -4-764.603 1032.01   2
  -9   0   4-98.5438 849.739   2
   2   0  -5 100.906 221.884   1
   1   0  -5 202989. 5615.25   1
   1   0   5 195317. 6839.80   4
   0   0   5 1007.51 608.700   4
   0   0  -5 574.723 468.694   1
  -1   0  -5 205835. 6466.01   1
  -1   0   5 192701. 4814.98   2
  -1   0  -5 204317. 4800.88   2
  -2   0   5 86.8650 242.017   2
  -2   0   5 202.899 295.532   3
  -2   0  -5 294.045 545.752   4
  -2   0   5 319.232 272.428   5
  -2   0  -5 381.342 310.278   2
  -2   0  -5 544.962 498.587   1
  -3   0  -5 150267. 6304.95   4
  -3   0   5 162765. 5158.97   5
  -3   0  -5 170320. 6498.96   1
  -3   0  -5 150834. 5585.59   2
  -3   0   5 155426. 5758.51   2
  -3   0   5 161468. 5083.73   3
  -4   0   5 258.058 315.789   5
  -4   0   5-199.401 471.739   2
  -4   0   5 399.201 346.119   3
  -4   0  -5 387.244 533.904   4
  -4   0  -5 235.040 409.915   1
  -4   0  -5 656.109 515.884   2
  -4   0   5-69.5722 220.492   4
  -5   0  -5 82339.0 4897.22   4
  -5   0  -5 85882.0 5105.88   2
  -5   0   5 85938.6 3337.25   4
  -5   0  -5 90460.9 5207.02   1
  -5   0   5 91446.8 5344.27   2
  -5   0   5 87737.8 4587.91   5
  -6   0  -5 737.743 729.813   2
  -6   0   5 351.396 725.941   2
  -6   0  -5-155.608 517.284   4
  -6   0   5 75.6760 242.983   4
  -6   0  -5 855.626 756.011   1
  -7   0   5 60848.2 5321.44   2
  -7   0  -5 55024.7 4990.47   2
  -7   0  -5 46084.6 4153.06   1
  -7   0  -5 61639.0 4667.05   4
  -8   0  -5-486.520 780.801   1
  -8   0   5-901.589 1071.54   2
  -8   0  -5-1805.49 1222.27   2
  -9   0   5 34190.2 4881.45   2
  -9   0  -5 38117.9 4925.69   2
   3   0  -6 288.407 245.618   1
   2   0  -6 195279. 5487.65   1
   1   0   6 66.6193 148.962   6
   1   0  -6 30.2659 259.288   1
   1   0  -6 21.1067 162.307   6
   0   0  -6 587364. 14026.4   1
  -1   0  -6 54.6169 151.268   2
  -1   0  -6-254.970 453.392   1
  -1   0   6 78.0181 199.923   2
  -2   0  -6 198743. 7150.54   1
  -2   0  -6 196786. 5662.81   2
  -2   0   6 197567. 5773.85   2
  -2   0  -6 192915. 7458.07   4
  -2   0   6 188198. 5620.55   3
  -3   0   6 221.374 301.631   3
  -3   0  -6 1092.78 666.073   4
  -3   0  -6 619.387 541.260   2
  -3   0   6 121.694 240.969   5
  -3   0   6-126.393 319.790   2
  -3   0  -6 321.506 616.872   1
  -4   0  -6 259941. 9441.61   4
  -4   0   6 237172. 8537.03   2
  -4   0  -6 249042. 8554.11   2
  -4   0   6 250726. 7735.73   5
  -4   0  -6 251523. 9263.99   1
  -4   0   6 240215. 7472.93   3
  -5   0   6 852.304 533.664   5
  -5   0   6 96.5013 463.239   3
  -5   0  -6 152.098 705.774   4
  -5   0   6 421.358 600.168   2
  -5   0  -6-222.217 507.089   2
  -5   0   6-183.613 267.022   4
  -5   0  -6 640.754 709.481   1
  -6   0   6 220087. 9748.50   2
  -6   0  -6 194863. 8924.10   4
  -6   0  -6 196801. 9072.21   2
  -6   0  -6 200159. 9073.40   1
  -6   0   6 202722. 6282.97   4
  -6   0   6 223466. 8655.28   5
  -7   0  -6 658.064 812.306   2
  -7   0  -6 512.098 812.128   1
  -7   0   6-74.9248 661.113   2
  -7   0  -6-98.2205 664.832   4
  -8   0   6 84810.3 7035.73   2
  -8   0  -6 86156.8 6273.64   1
  -8   0  -6 87857.2 6885.81   2
  -9   0   6-790.193 1141.80   2
  -9   0  -6 416.847 1128.87   2
   3   0  -7 23827.0 1512.90   1
   2   0  -7 128.893 235.559   1
   2   0  -7-62.7839 163.132   6
   1   0  -7 15516.3 828.855   6
   1   0   7 18692.5 952.369   6
   1   0  -7 17335.9 1583.44   1
   0   0  -7 186.597 505.219   1
  -1   0  -7 16608.3 905.512   2
  -1   0  -7 18424.2 1888.80   1
  -1   0   7 16736.4 964.613   2
  -2   0   7 153.310 267.570   2
  -2   0  -7-9.31164 181.809   2
  -2   0  -7 73.1708 462.794   1
  -2   0   7-23.6725 237.543   3
  -3   0  -7 29964.5 2812.74   1
  -3   0   7 29181.1 2050.63   3
  -3   0   7 23745.2 1817.12   5
  -3   0  -7 27194.2 2827.01   4
  -3   0   7 28501.9 2231.03   2
  -3   0  -7 28358.8 2158.07   2
  -4   0  -7-500.183 591.617   1
  -4   0   7 378.315 385.937   2
  -4   0   7-180.103 382.796   5
  -4   0  -7-184.738 510.578   4
  -4   0  -7-12.0770 337.277   2
  -4   0   7 274.869 416.052   3
  -5   0   7 29693.9 2019.66   4
  -5   0  -7 31036.9 3251.87   1
  -5   0  -7 28034.5 2850.56   2
  -5   0  -7 26421.7 3048.73   4
  -5   0   7 31995.0 2528.59   3
  -5   0   7 30358.6 2582.96   5
  -5   0   7 29420.9 2993.52   2
  -6   0  -7 1226.08 805.945   2
  -6   0   7 198.467 297.693   4
  -6   0   7-350.620 613.520   2
  -6   0  -7 231.299 679.886   4
  -6   0  -7 993.473 900.301   1
  -6   0   7 234.180 643.001   5
  -7   0   7 24059.2 3389.16   2
  -7   0  -7 27658.8 3484.03   2
  -7   0  -7 30593.9 3631.81   1
  -7   0  -7 22823.7 3133.84   4
  -8   0  -7 102.273 725.346   1
  -8   0   7 17.4757 693.065   2
  -8   0  -7-1110.95 1029.97   2
  -9   0   7 29523.9 4559.32   2
  -9   0  -7 31388.3 4472.72   2
   3   0  -8 414.100 285.742   1
   2   0   8 210338. 5823.83   6
   2   0  -8 205344. 6500.86   1
   2   0  -8 196810. 5516.41   6
   1   0  -8-9.03339 251.501   1
   1   0  -8 35.4465 77.2251   6
   1   0   8-141.491 85.2067   6
   0   0  -8 451157. 12320.3   1
  -1   0  -8 120.015 419.521   1
  -1   0  -8-102.028 97.0766   2
  -1   0   8 59.2633 94.2803   2
  -2   0   8 217327. 6567.30   3
  -2   0  -8 226311. 8317.35   1
  -2   0  -8 201451. 5825.40   2
  -2   0   8 209603. 6039.72   2
  -3   0   8-121.804 299.340   5
  -3   0  -8-428.397 369.415   2
  -3   0   8 451.378 438.690   3
  -3   0  -8-57.1551 559.405   1
  -3   0   8-341.637 332.932   2
  -4   0   8 226921. 7340.43   3
  -4   0   8 212822. 7233.87   5
  -4   0  -8 218998. 9146.51   1
  -4   0   8 203992. 7891.74   2
  -4   0  -8 213370. 9371.96   4
  -4   0  -8 225109. 7973.43   2
  -5   0   8 1023.23 607.147   3
  -5   0   8-249.145 469.308   5
  -5   0   8-167.212 532.907   2
  -5   0  -8 35.2484 519.276   2
  -5   0  -8-257.918 804.861   4
  -5   0   8-80.8246 333.935   4
  -5   0  -8 1224.39 935.780   1
  -6   0   8 175179. 5980.82   4
  -6   0  -8 171766. 8353.11   2
  -6   0  -8 182553. 9066.35   1
  -6   0   8 173346. 8601.95   2
  -6   0   8 165000. 7019.60   3
  -6   0  -8 152090. 8471.85   4
  -6   0   8 181825. 7722.13   5
  -7   0  -8 19.5707 791.164   4
  -7   0   8 381.331 770.308   2
  -7   0  -8-843.093 900.829   1
  -7   0   8-991.115 812.411   5
  -7   0  -8 1873.40 1069.18   2
  -8   0   8 79483.8 6835.96   2
  -8   0  -8 84387.9 6745.22   2
  -8   0  -8 73742.9 6176.14   1
  -9   0  -8-611.284 960.612   2
  -9   0   8 1297.67 1266.97   2
   3   0  -9 85793.0 3773.13   1
   2   0  -9 9.08161 306.852   1
   2   0   9 239.513 260.019   6
   2   0  -9 7.56505 243.402   6
   1   0  -9 107265. 4842.93   1
   0   0  -9-58.4389 355.528   1
  -1   0  -9 109582. 5505.71   1
  -2   0  -9-586.076 284.756   2
  -2   0   9-5.21649 206.819   2
  -2   0   9 32.0514 315.074   3
  -3   0   9 76709.3 3866.12   2
  -3   0  -9 84404.2 3899.24   2
  -3   0  -9 85038.6 5289.38   1
  -3   0   9 87176.8 4013.79   5
  -3   0   9 88218.3 4052.58   3
  -4   0  -9 230.563 503.174   1
  -4   0  -9 107.572 369.192   2
  -4   0   9 814.311 574.466   5
  -4   0   9 163.020 427.017   2
  -4   0   9-159.337 394.551   3
  -5   0  -9 58999.6 4198.51   2
  -5   0   9 67393.9 4618.10   2
  -5   0  -9 67667.0 5248.79   1
  -5   0   9 62543.9 3851.23   3
  -5   0   9 60637.7 3889.84   5
  -6   0  -9 504.017 773.641   1
  -6   0   9-515.853 713.759   2
  -6   0   9 255.874 354.685   4
  -6   0  -9 1025.02 724.967   2
  -6   0   9-1589.68 774.139   5
  -6   0   9 633.851 666.699   3
  -7   0   9 41766.2 3953.50   5
  -7   0  -9 41917.6 4301.08   2
  -7   0   9 37676.9 4264.47   2
  -7   0  -9 39993.1 4487.84   1
  -8   0  -9-1661.22 1184.83   2
  -8   0   9 1377.16 1126.65   2
  -8   0  -9 1245.17 1098.55   1
  -9   0  -9 24094.8 4016.10   2
   3   0 -10-240.416 343.549   1
   2   0 -10 150919. 4289.57   6
   2   0 -10 149839. 5921.64   1
   2   0  10 147042. 4466.05   6
   1   0 -10 719.138 524.347   1
   0   0 -10 241530. 8827.61   1
  -1   0 -10 328.730 609.728   1
  -2   0  10 144452. 4659.35   2
  -2   0 -10 148726. 7224.94   1
  -2   0 -10 149057. 4538.45   2
  -2   0  10 162925. 5829.02   3
  -3   0 -10 171.593 313.247   2
  -3   0  10 593.966 480.771   3
  -3   0  10 597.165 512.138   2
  -3   0 -10 247.459 599.334   1
  -3   0  10-119.374 413.058   5
  -4   0 -10 163086. 6504.33   2
  -4   0  10 167428. 6394.52   5
  -4   0  10 153933. 6224.56   3
  -4   0 -10 155594. 8098.38   1
  -4   0  10 147991. 6471.96   2
  -5   0  10-88.2728 430.797   3
  -5   0 -10-1130.40 952.109   1
  -5   0  10-709.223 641.164   2
  -5   0  10-1234.79 651.029   5
  -5   0 -10 171.463 450.960   2
  -6   0  10 130335. 6355.71   3
  -6   0 -10 140552. 8373.26   1
  -6   0  10 138944. 6789.72   5
  -6   0  10 120039. 5246.78   4
  -6   0 -10 122289. 6962.16   2
  -6   0  10 119890. 7114.41   2
  -7   0  10 746.343 947.217   2
  -7   0  10-182.760 535.770   5
  -7   0 -10 288.156 845.902   1
  -7   0 -10 386.670 688.298   2
  -8   0  10 65539.2 6249.99   2
  -8   0 -10 61985.3 6047.06   1
  -8   0 -10 65934.3 5983.61   2
   3   0 -11 49532.4 3237.10   1
   2   0  11 252.339 196.202   6
   2   0 -11 831.657 612.866   1
   1   0 -11 60440.9 3954.55   1
   0   0 -11 26.5478 447.068   1
  -1   0 -11 57677.8 4255.84   1
  -2   0 -11 119.014 155.087   2
  -2   0 -11-342.525 594.976   1
  -2   0  11 501.053 259.698   2
  -2   0  11 487.861 535.379   3
  -3   0 -11 49894.8 4383.47   1
  -3   0  11 52818.6 3389.92   5
  -3   0  11 54884.3 3445.53   3
  -3   0 -11 47643.8 2768.54   2
  -3   0  11 47933.9 2937.41   2
  -4   0 -11 824.723 542.165   2
  -4   0  11-715.180 532.578   2
  -4   0 -11-673.797 631.427   1
  -4   0  11-205.549 526.480   3
  -4   0  11 17.4349 403.568   5
  -5   0  11 50892.0 4075.39   2
  -5   0  11 52033.9 3763.60   5
  -5   0  11 58941.9 3928.39   3
  -5   0 -11 57796.5 5192.43   1
  -5   0 -11 46499.6 3751.31   2
  -6   0  11 998.074 631.560   4
  -6   0 -11 59.4985 956.670   1
  -6   0 -11-1048.57 757.407   2
  -6   0  11-1327.71 818.898   5
  -6   0  11 408.101 624.871   3
  -6   0  11-421.314 602.401   2
  -7   0  11 31005.3 3298.85   3
  -7   0 -11 37154.9 4086.72   2
  -7   0  11 31354.8 3535.11   5
  -7   0  11 42907.6 4572.33   2
  -7   0 -11 39902.1 4737.98   1
  -8   0  11 7.26266 920.804   2
  -8   0 -11-2110.17 1350.19   1
   3   0 -12 2040.53 723.964   1
   2   0 -12 134215. 6139.46   1
   1   0 -12 254.342 470.728   1
   0   0 -12 170521. 7666.62   1
  -1   0 -12-1333.12 828.862   1
  -2   0 -12 126638. 7073.38   1
  -2   0  12 123593. 5415.43   3
  -3   0  12 70.2765 478.117   3
  -3   0 -12 22.4381 748.992   1
  -3   0  12 420.944 348.829   2
  -4   0  12 115405. 5612.88   3
  -4   0 -12 115225. 7364.85   1
  -4   0  12 115496. 5524.72   2
  -4   0  12 118056. 5648.43   5
  -5   0 -12-1481.62 1112.22   1
  -5   0  12-1078.84 733.903   2
  -5   0  12-1181.03 719.996   3
  -5   0  12 403.406 517.334   5
  -6   0  12 90354.5 5695.71   5
  -6   0 -12 96035.6 7316.00   1
  -6   0  12 103713. 5880.37   3
  -7   0  12 499.557 643.704   5
  -7   0 -12 2092.07 1108.69   1
  -8   0 -12 56761.7 6108.12   1
   3   0 -13 47688.0 3488.40   1
   2   0 -13-463.975 521.526   1
   1   0 -13 64354.5 4480.83   1
   0   0 -13 48.4287 575.391   1
  -1   0 -13 56582.5 4594.83   1
  -2   0 -13-1729.42 1015.03   1
  -2   0  13-667.430 570.409   3
  -3   0  13 42808.9 3247.21   3
  -3   0 -13 40246.3 4223.13   1
  -4   0  13-370.860 476.407   5
  -4   0 -13 53.4089 912.870   1
  -4   0  13 276.536 511.279   3
  -5   0  13 46476.7 3740.82   5
  -5   0  13 42905.1 3596.45   3
  -5   0 -13 41716.1 4739.61   1
  -6   0 -13 711.141 1249.37   1
  -6   0  13 1561.18 853.854   3
  -6   0  13-447.109 676.799   5
  -7   0  13 21555.6 2905.37   3
  -7   0 -13 30522.8 4432.61   1
   2   0 -14 116476. 6231.45   1
   1   0 -14 412.253 603.865   1
   0   0 -14 128913. 7095.61   1
  -1   0 -14-432.410 781.556   1
  -2   0 -14 115902. 7304.72   1
  -2   0  14 113282. 5609.54   3
  -3   0  14-223.892 421.261   3
  -3   0 -14-973.510 983.272   1
  -4   0  14 103438. 5671.29   3
  -4   0 -14 111284. 7718.04   1
  -4   0  14 102991. 5583.24   5
  -5   0  14-17.4019 523.084   5
  -5   0  14 103.118 430.428   3
  -5   0 -14-725.799 994.369   1
  -6   0  14 74856.1 5293.52   3
  -6   0  14 90127.2 5871.38   5
  -6   0 -14 80175.4 7152.34   1
   2   0 -15-814.270 675.683   1
   1   0 -15 26310.6 3106.37   1
   0   0 -15 682.889 781.362   1
  -1   0 -15 28305.9 3502.00   1
  -2   0  15 895.695 714.462   3
  -2   0 -15 1522.37 1136.09   1
  -3   0 -15 20610.9 3270.09   1
  -3   0  15 22864.5 2581.32   3
  -4   0 -15-1203.98 1069.58   1
  -4   0  15 526.605 596.988   3
  -4   0  15-53.4133 479.970   5
  -5   0  15 27346.8 3065.44   3
  -5   0  15 27534.1 3062.32   5
  -5   0 -15 30543.6 4304.38   1
  -6   0  15-583.719 772.276   3
  -6   0 -15-1644.13 1377.87   1
   2   0 -16 108349. 6527.01   1
   1   0 -16 646.040 788.222   1
   0   0 -16 98270.9 6650.51   1
  -1   0 -16 397.443 735.574   1
  -2   0  16 111611. 6021.26   3
  -2   0 -16 115351. 7770.47   1
  -3   0 -16 372.805 872.087   1
  -3   0  16-140.705 678.181   3
  -4   0 -16 89620.5 7367.50   1
  -4   0  16 86000.0 5416.11   5
  -4   0  16 84944.6 5542.69   3
  -5   0  16-747.095 742.433   5
  -5   0 -16-676.954 1065.97   1
  -5   0  16 777.876 751.241   3
   1   0 -17 40154.5 4212.24   1
   0   0 -17 2035.74 1118.36   1
  -1   0 -17 35734.1 4232.12   1
  -2   0 -17 886.578 1054.51   1
  -2   0  17 452.284 663.728   3
  -3   0 -17 21085.8 3562.16   1
  -3   0  17 28414.4 3106.83   3
  -4   0  17 146.077 546.306   5
  -4   0  17-974.100 795.079   3
  -4   0 -17 1363.34 1141.59   1
   1   0 -18-370.284 799.401   1
   0   0 -18 46944.8 4882.60   1
  -1   0 -18-1255.80 1113.25   1
  -2   0 -18 57488.3 5808.06   1
  -2   0  18 53824.7 4422.32   3
  -3   0 -18-633.893 977.715   1
  -3   0  18 873.125 843.806   3
   0   0 -19-1024.92 999.159   1
  -1   0 -19 30171.3 4216.93   1
  -1   0  19 24129.1 3048.69   3
  -2   0 -19-795.110 1095.42   1
  -2   0  19 1320.12 864.337   3
   0   0 -20 37721.6 4746.47   1
  -1   0 -20 1091.45 1051.35   1
   0   0 -21-1867.89 1171.79   1
   5   1   0 0.30306 136.893   4
   4   1   0 47467.9 1545.62   4
   3   1   0-28.2859 67.2265   4
   3  -1   0-87.6909 182.236   4
   3   1   0-25.6525 165.071   1
   2  -1   0 62910.5 2014.91   3
   2   1   0 71828.4 3063.36   6
   2   1   0 65769.9 2616.71   5
   2  -1   0 66346.5 2362.40   4
   2   1   0 71169.6 3175.78   2
   2   1   0 69499.0 2512.97   1
   1   1   0 122.455 227.016   6
   1  -1   0-4.16592 130.471   4
   1   1   0 326.109 321.756   2
   1   1   0 88.6564 146.986   5
   1   1   0 104.214 203.495   1
   0   1   0 49900.3 1524.03   4
   0  -1   0 49947.7 1483.08   4
  -1  -1   0 142.268 174.440   5
  -1  -1   0-368.967 343.704   2
  -1   1   0 21.8329 138.048   4
  -1  -1   0 307.257 281.271   6
  -1  -1   0-166.094 230.139   1
  -2  -1   0 65036.4 2462.94   1
  -2  -1   0 65505.5 3083.56   2
  -2   1   0 63104.5 2414.94   4
  -2  -1   0 64165.7 2677.99   5
  -3  -1   0-100.136 215.163   1
  -3   1   0-215.166 291.810   4
  -3  -1   0-104.264 109.924   4
  -3  -1   0-96.8912 466.808   2
  -4  -1   0 49816.6 3505.86   2
  -4   1   0 49540.9 2614.19   4
  -4  -1   0 43580.3 1889.44   4
  -4  -1   0 45288.6 2389.91   1
  -5  -1   0-31.9499 228.387   4
  -5   1   0 79.0583 338.993   4
  -5  -1   0-174.693 530.718   2
  -5  -1   0 1184.03 464.193   1
  -6  -1   0 37064.8 2172.41   4
  -6   1   0 35990.4 2694.68   4
  -6  -1   0 32242.1 2363.21   1
  -6  -1   0 36779.0 3757.59   2
  -7  -1   0-1119.68 912.258   2
  -7   1   0 321.888 600.730   2
  -7   1   0 211.890 476.801   1
  -7   1   0-1126.86 684.278   4
  -8  -1   0 29547.2 4065.61   2
  -8   1   0 35270.8 4392.66   2
  -9  -1   0 3187.40 1778.82   2
  -9   1   0 1583.17 1384.37   2
   5   1   1 305200. 6983.60   4
   4   1   1 8464.28 658.177   4
   3   1  -1 314152. 7264.80   1
   3  -1  -1 326017. 8010.90   5
   3   1   1 309318. 6837.40   4
   3   1   1 317637. 8221.91   1
   3  -1   1 318618. 7869.99   4
   3  -1  -1 321425. 7463.73   3
   3  -1  -1 324656. 7652.76   4
   2  -1  -1 32978.0 1533.28   4
   2   1   1 39538.0 1985.68   5
   2   1  -1 35933.0 1724.61   3
   2   1   1 36077.2 1929.55   1
   2   1   1 36140.9 2123.12   6
   2  -1  -1 36973.0 1389.50   3
   2   1  -1 38403.8 2152.28   6
   2   1   1 36926.0 2206.43   2
   2   1  -1 32160.0 2076.10   2
   2  -1  -1 36631.2 1594.55   5
   2   1   1 32806.1 1343.97   4
   2   1  -1 35184.3 1470.98   1
   2  -1   1 34258.9 1701.28   4
   2   1  -1 36575.5 1789.85   5
   1   1  -1 618697. 13532.4   2
   1  -1   1 633684. 12885.7   4
   1   1  -1 644396. 13310.6   6
   1   1  -1 602131. 12689.7   1
   1   1  -1 622190. 12579.5   3
   1   1   1 598926. 13268.3   6
   1   1  -1 650899. 12711.6   5
   1  -1  -1 627601. 12649.2   4
   1  -1  -1 602524. 12003.8   5
   1   1   1 620273. 13317.3   1
   1   1   1 623704. 12807.6   5
   1   1   1 585384. 13505.3   2
   0  -1   1 32071.8 977.238   3
   0  -1   1 32231.4 1234.20   4
   0   1  -1 31232.2 958.235   3
   0  -1  -1 31319.6 1573.03   1
   0   1   1 29838.1 1513.14   1
   0   1  -1 30222.7 1233.65   4
  -1   1  -1 619649. 12911.5   4
  -1  -1  -1 608360. 13552.8   2
  -1  -1   1 616090. 12609.9   3
  -1   1   1 638391. 11951.7   3
  -1  -1   1 618220. 13590.6   2
  -1  -1   1 613258. 12702.1   5
  -1  -1  -1 613798. 13354.4   1
  -1   1   1 625380. 12605.0   4
  -1  -1  -1 620350. 13260.6   6
  -1  -1   1 645421. 13284.4   6
  -2  -1   1 34193.7 1497.78   1
  -2  -1  -1 38284.5 2249.59   2
  -2  -1   1 35143.6 1837.98   5
  -2   1   1 33249.2 1569.16   4
  -2  -1   1 39993.7 2302.05   2
  -2   1  -1 34236.8 1786.54   4
  -2  -1  -1 38193.9 1954.57   1
  -3  -1   1 312308. 8471.32   5
  -3  -1  -1 307174. 7144.26   4
  -3  -1   1 293184. 6151.87   4
  -3  -1  -1 314288. 8049.55   1
  -3  -1   1 315002. 7178.23   1
  -3   1  -1 311455. 7956.63   4
  -3  -1   1 261054. 8702.77   2
  -3   1   1 312758. 7540.96   4
  -4  -1   1 7465.14 1327.28   2
  -4  -1  -1 8311.05 888.681   4
  -4  -1   1 8548.22 658.980   4
  -4  -1  -1 9408.66 1515.95   2
  -4  -1  -1 7757.60 1097.42   1
  -4   1  -1 8505.06 1105.98   4
  -4   1   1 6201.95 864.927   4
  -4  -1   1 6316.03 764.499   1
  -5  -1   1 290112. 7177.74   4
  -5   1   1 301537. 8542.01   4
  -5  -1  -1 299316. 8871.45   1
  -5   1  -1 316078. 9155.43   4
  -5  -1   1 298815. 10852.5   2
  -5  -1   1 301737. 7884.72   1
  -5  -1  -1 303038. 8081.29   4
  -5  -1  -1 306962. 10911.8   2
  -6   1  -1 3393.19 914.510   4
  -6   1   1 1219.57 548.527   4
  -6  -1   1 1569.31 437.168   4
  -6  -1  -1 2756.09 803.569   1
  -6  -1   1 1466.57 509.848   1
  -6  -1   1 2370.55 1151.94   2
  -6  -1  -1 2143.16 1017.75   2
  -6  -1  -1 1660.91 547.366   4
  -7  -1   1 148430. 8649.01   2
  -7   1  -1 157880. 8580.43   2
  -7   1   1 157987. 8634.20   2
  -7   1  -1 141707. 6560.44   1
  -7   1   1 165897. 6587.09   4
  -7   1  -1 153951. 6788.49   4
  -7  -1  -1 163867. 9019.82   2
  -8   1  -1 2249.92 1314.80   2
  -8  -1   1 991.154 850.596   2
  -8   1   1 3977.97 1532.80   2
  -8  -1  -1 2165.61 1109.14   2
  -9  -1   1 106593. 8548.56   2
  -9   1  -1 100744. 8143.53   2
  -9   1   1 100409. 8167.15   2
  -9  -1  -1 105257. 8442.71   2
   5   1   2 149.966 168.988   4
   4   1   2 100746. 3251.37   4
   3   1   2 1469.07 358.732   4
   3  -1  -2 1155.10 360.016   5
   3  -1  -2 1440.40 361.171   3
   3   1   2 2137.77 539.904   1
   2   1  -2 133401. 3978.82   3
   2   1   2 145862. 4726.10   6
   2  -1  -2 138392. 3541.59   3
   2   1   2 136332. 4110.05   4
   2   1   2 134458. 4615.69   1
   2   1  -2 129370. 3312.26   1
   2   1  -2 135053. 4053.21   5
   2  -1   2 127345. 4154.54   4
   2   1  -2 142307. 4782.16   2
   2   1  -2 135685. 4575.75   6
   2  -1  -2 129664. 3501.06   5
   2   1   2 143278. 4800.67   2
   1   1   2 1202.60 355.558   6
   1  -1   2 1383.79 341.096   4
   1   1  -2 1420.64 396.115   2
   1   1   2 1598.89 430.384   2
   1   1  -2 1624.11 403.896   6
   1   1   2 1188.33 417.158   1
   1   1  -2 1255.72 281.690   3
   1   1  -2 1138.06 304.143   4
   0  -1   2 130277. 3696.21   4
   0   1  -2 130173. 3778.34   4
   0  -1   2 136262. 3157.84   3
   0   1   2 131052. 4062.33   1
   0  -1  -2 130359. 4079.09   1
  -1  -1   2 1298.40 321.760   5
  -1  -1   2 1679.33 324.675   4
  -1   1   2 1356.65 423.671   1
  -1  -1   2 940.176 330.390   6
  -1  -1   2 1251.63 276.930   3
  -1  -1  -2 1151.85 353.828   6
  -1  -1   2 1352.84 392.351   2
  -1   1   2 1172.98 163.788   5
  -1  -1  -2 923.147 369.973   2
  -1   1  -2 1197.74 365.767   4
  -1  -1  -2 1154.92 403.587   1
  -2  -1  -2 134356. 4525.35   1
  -2  -1   2 125824. 3404.28   4
  -2   1  -2 135850. 4389.32   4
  -2  -1  -2 137963. 4721.54   2
  -2   1   2 129239. 3464.12   3
  -2  -1   2 127510. 4659.82   2
  -2  -1   2 131952. 4111.26   5
  -2  -1   2 132928. 3996.49   3
  -2   1   2 131548. 3787.80   4
  -3  -1   2 1575.05 207.321   4
  -3   1  -2 1516.37 480.177   4
  -3  -1  -2 1610.75 633.305   2
  -3  -1   2 1596.20 495.085   5
  -3  -1  -2 1692.80 439.392   4
  -3  -1   2 803.501 470.450   2
  -3  -1  -2 1917.26 581.977   1
  -3   1   2 1573.67 402.184   4
  -4  -1   2 93895.7 4992.39   2
  -4  -1  -2 98078.7 4370.60   1
  -4  -1   2 94431.1 2685.48   4
  -4   1   2 96728.3 3639.18   4
  -4  -1  -2 96116.3 4979.38   2
  -4   1  -2 103038. 4356.00   4
  -4  -1   2 101375. 4561.04   5
  -4  -1   2 96856.9 2922.66   1
  -4  -1  -2 93238.6 3759.76   4
  -5  -1   2 570.718 626.753   2
  -5  -1  -2 469.478 643.201   2
  -5  -1  -2 529.367 351.539   1
  -5  -1   2 430.114 235.889   1
  -5   1  -2 393.709 431.253   4
  -5  -1  -2-207.628 311.812   4
  -5   1   2 244.202 410.520   4
  -5  -1   2-68.1479 237.669   4
  -6  -1   2 65521.8 2657.78   4
  -6   1  -2 66805.0 4118.95   1
  -6   1  -2 69455.7 4176.74   4
  -6  -1  -2 69313.7 3628.02   4
  -6  -1  -2 73741.6 4212.53   1
  -6   1   2 64569.5 3492.89   4
  -6  -1   2 67082.5 5130.13   2
  -6  -1  -2 76338.9 5421.29   2
  -7   1   2-248.967 570.401   4
  -7   1   2-51.8017 672.908   2
  -7  -1  -2 2101.96 1115.79   2
  -7   1  -2 544.693 740.250   2
  -7   1  -2 2490.02 927.351   4
  -7   1  -2-486.398 584.295   1
  -7  -1   2 1340.57 1026.44   2
  -7  -1  -2 387.229 504.501   1
  -8   1  -2 53767.1 5403.36   2
  -8  -1   2 49192.6 5312.78   2
  -8  -1  -2 53723.4 5463.81   2
  -8   1   2 46035.7 5025.74   2
  -9  -1  -2-1776.18 1377.02   2
  -9   1   2 1203.35 1075.77   2
  -9  -1   2 20.9343 916.378   2
   5   1   3 224334. 6283.07   4
   4   1   3 715.346 305.118   4
   3   1   3 226099. 6355.73   4
   3  -1  -3 221327. 5797.06   5
   2   1   3 380.320 327.243   1
   2  -1  -3 510.700 175.501   5
   2   1   3 679.288 333.549   4
   2   1   3 633.103 317.507   2
   2   1   3 900.713 370.845   6
   2   1  -3 992.493 397.091   2
   2   1  -3 1107.95 403.036   6
   2  -1   3 587.295 288.288   4
   1   1   3 411387. 10215.7   1
   1   1  -3 414797. 9295.10   6
   1  -1  -3 400598. 9733.37   1
   1   1  -3 413633. 9543.25   2
   1   1  -3 414661. 8953.62   3
   1   1   3 407301. 9537.33   2
   1  -1   3 415383. 9828.61   4
   1   1   3 413781. 9339.25   6
   0   1  -3 18184.9 1393.75   4
   0  -1   3 19959.0 1388.71   4
   0  -1  -3 20354.0 1475.57   1
   0   1   3 20350.3 1474.46   1
  -1  -1  -3 412562. 9521.15   2
  -1  -1   3 409314. 8847.30   3
  -1  -1   3 402701. 9377.66   4
  -1  -1  -3 404761. 9125.49   6
  -1  -1   3 392600. 9494.01   2
  -1   1   3 390676. 9438.49   1
  -1   1  -3 401600. 9952.73   4
  -1  -1  -3 410353. 10022.0   1
  -1  -1   3 404035. 9186.64   6
  -2   1   3 1061.70 284.893   3
  -2  -1   3 957.416 325.847   4
  -2  -1  -3 440.369 350.488   1
  -2  -1  -3 1208.73 446.264   2
  -2   1  -3 1130.90 478.906   4
  -2   1   3 624.267 288.118   1
  -2  -1   3 541.445 272.527   5
  -2   1   3 524.766 255.586   4
  -2  -1   3 725.522 307.729   3
  -2  -1   3 662.990 379.670   2
  -2   1   3 882.807 264.722   5
  -3  -1  -3 224533. 7218.86   1
  -3   1   3 221966. 5853.28   3
  -3  -1  -3 232884. 7450.65   2
  -3   1   3 207264. 5933.68   1
  -3  -1   3 222398. 7454.88   2
  -3   1  -3 222187. 7007.04   4
  -3  -1   3 218340. 6394.14   3
  -3   1   3 215711. 6127.04   5
  -3   1   3 221759. 5906.01   4
  -3  -1   3 231291. 6678.43   5
  -4  -1   3 365.761 478.577   2
  -4   1  -3 96.1252 404.652   4
  -4  -1  -3-297.748 321.536   4
  -4   1   3 884.761 384.890   4
  -4  -1  -3 712.385 482.741   1
  -4  -1   3 575.668 187.068   4
  -4  -1  -3 553.874 515.837   2
  -4  -1   3 404.991 421.308   5
  -5  -1  -3 234498. 8297.03   1
  -5   1   3 228947. 6880.60   4
  -5   1  -3 248800. 8436.65   4
  -5  -1  -3 224586. 7543.44   4
  -5  -1  -3 238576. 9306.24   2
  -5  -1   3 226187. 5677.36   4
  -5  -1   3 234695. 8381.19   5
  -5  -1   3 239241. 9386.63   2
  -6   1   3 249.572 350.626   4
  -6  -1   3 148.333 724.318   2
  -6  -1  -3 966.856 828.704   2
  -6   1  -3 38.6789 510.834   4
  -6  -1  -3 392.645 481.725   1
  -6  -1   3 530.168 254.096   4
  -6  -1  -3 149.689 438.199   4
  -6   1  -3 679.375 646.713   1
  -7   1  -3 124091. 6543.36   4
  -7   1   3 122562. 5339.64   4
  -7   1  -3 119710. 7431.24   2
  -7   1   3 117605. 7487.45   2
  -7   1  -3 127059. 6550.62   1
  -7  -1   3 121873. 7789.95   2
  -7  -1  -3 123223. 6302.61   1
  -7  -1  -3 123975. 7767.15   2
  -8  -1   3 1600.67 1200.74   2
  -8  -1  -3 908.418 1063.14   2
  -8   1   3 54.0640 723.475   2
  -8   1  -3-142.953 773.223   2
  -9  -1  -3 95971.5 8042.78   2
  -9   1   3 82985.4 7435.06   2
  -9   1  -3 86703.3 7456.17   2
  -9  -1   3 88874.6 7843.84   2
   3  -1  -4 1265.76 339.452   5
   3   1   4 1783.30 572.571   4
   2   1   4 164270. 5989.49   4
   2   1   4 171616. 5583.33   2
   2   1  -4 181581. 5519.33   6
   2   1   4 188952. 5729.89   6
   2   1  -4 179084. 5595.97   2
   1   1   4 1627.61 381.159   6
   1   1   4 1714.05 401.759   2
   1   1   4 1392.70 509.212   1
   1   1  -4 1322.20 395.386   2
   1  -1   4 2040.61 537.947   4
   1  -1  -4 1600.80 480.029   1
   0   1   4 196904. 5957.05   1
   0   1  -4 200532. 6240.74   4
   0  -1   4 183900. 5962.03   4
   0  -1  -4 205301. 6090.22   1
  -1   1  -4 1984.13 562.648   4
  -1  -1   4 1630.45 406.714   6
  -1  -1  -4 822.523 333.387   2
  -1  -1  -4 1767.66 398.567   6
  -1  -1   4 1315.65 387.774   3
  -1  -1  -4 1628.73 573.695   1
  -1  -1   4 849.954 351.897   2
  -1   1   4 1452.85 437.527   1
  -1  -1   4 2269.69 593.243   4
  -2  -1   4 169638. 5526.26   4
  -2  -1  -4 174452. 6153.69   1
  -2  -1   4 179391. 5238.50   5
  -2  -1   4 172747. 5727.16   2
  -2   1   4 179327. 5254.75   1
  -2  -1   4 184968. 5186.37   3
  -2  -1  -4 185275. 5780.69   2
  -2   1   4 174787. 4719.20   3
  -2   1  -4 178135. 6147.84   4
  -2   1   4 178117. 4550.20   5
  -3   1  -4 2142.11 683.373   4
  -3   1   4 1676.28 436.049   1
  -3  -1   4 1548.88 539.552   3
  -3  -1  -4 1380.24 568.846   1
  -3  -1   4 1734.96 700.264   2
  -3  -1   4 1789.24 537.840   5
  -3  -1  -4 2865.68 755.383   2
  -3   1   4 2208.97 485.170   5
  -3   1   4 1740.57 450.270   3
  -3   1   4 2200.71 500.919   4
  -4   1   4 115135. 4156.85   3
  -4   1  -4 105129. 5047.91   4
  -4  -1   4 106508. 5407.14   2
  -4   1   4 108065. 3781.02   1
  -4  -1   4 103645. 3068.23   4
  -4  -1   4 109007. 4766.13   5
  -4  -1   4 99728.5 4346.44   3
  -4   1   4 108596. 4414.44   5
  -4  -1  -4 105101. 5108.04   1
  -4   1   4 107648. 3905.62   4
  -4  -1  -4 107358. 5299.30   2
  -5   1   4 310.798 323.551   4
  -5  -1   4 322.086 203.391   4
  -5  -1  -4 324.909 504.923   2
  -5  -1  -4-17.2123 529.598   1
  -5   1   4 372.638 279.420   1
  -5  -1  -4 42.8195 460.704   4
  -5  -1   4 252.748 627.319   2
  -5   1  -4 706.408 518.589   4
  -5  -1   4 70.6759 494.228   5
  -6  -1  -4 76339.4 5367.88   2
  -6   1  -4 57570.0 4594.27   2
  -6   1  -4 67503.7 4573.20   4
  -6   1   4 55621.0 4659.35   2
  -6  -1   4 71398.0 5325.23   2
  -6   1   4 66019.0 3437.52   4
  -6   1  -4 68751.9 4542.57   1
  -6  -1  -4 68588.7 4547.40   1
  -6  -1  -4 72719.6 4256.46   4
  -7   1   4 240.528 387.296   4
  -7  -1  -4-203.374 542.818   1
  -7  -1   4 338.030 878.814   2
  -7   1   4-473.273 806.553   2
  -7   1  -4 861.067 1087.15   2
  -7   1  -4 532.251 630.911   1
  -7   1  -4 1107.15 672.754   4
  -7  -1  -4-782.045 892.076   2
  -8   1   4 47360.4 5174.07   2
  -8   1  -4 47050.6 5083.20   2
  -8  -1  -4 47529.2 5155.02   2
  -8  -1   4 52746.9 5528.86   2
  -9   1   4-1944.90 1396.75   2
  -9  -1  -4-254.383 957.433   2
  -9   1  -4 713.359 964.078   2
   2   1  -5 2387.09 564.744   2
   2   1  -5 3692.14 661.974   6
   2  -1  -5 3494.28 688.571   1
   2   1   5 2549.41 589.907   2
   2   1   5 3525.76 694.668   6
   1  -1  -5 360456. 9560.46   1
   1   1  -5 371714. 8663.16   2
   1   1   5 367106. 8656.55   2
   0   1   5 26564.8 1980.19   1
   0   1  -5 21468.3 1223.97   2
   0  -1   5 22151.1 1890.13   4
   0   1  -5 21286.2 1957.53   4
   0  -1  -5 23011.7 1858.51   1
   0   1   5 21045.8 1281.78   2
  -1  -1   5 366918. 10064.4   4
  -1  -1   5 377787. 8779.38   3
  -1  -1  -5 374669. 8477.38   6
  -1  -1   5 380567. 8593.80   6
  -1   1  -5 379544. 10621.0   4
  -1   1   5 376154. 9594.96   1
  -1  -1  -5 365929. 8935.93   2
  -1  -1   5 362761. 9028.99   2
  -1  -1  -5 375126. 10251.4   1
  -2   1   5 2487.14 431.326   5
  -2  -1  -5 3744.68 875.012   1
  -2  -1   5 2752.51 554.620   3
  -2   1  -5 3182.00 863.728   4
  -2   1   5 2881.73 579.573   1
  -2  -1  -5 3968.48 718.427   2
  -2   1   5 3557.65 556.854   3
  -2  -1   5 2498.46 571.424   5
  -2  -1   5 2395.32 595.011   2
  -2  -1   5 2221.90 661.924   4
  -3   1   5 222292. 6169.70   3
  -3   1  -5 213365. 7907.64   4
  -3  -1   5 236741. 6728.59   3
  -3   1   5 216866. 6134.12   5
  -3  -1  -5 235100. 8099.39   1
  -3  -1   5 220272. 7511.22   2
  -3   1   5 225900. 6206.40   1
  -3   1   5 213429. 6269.13   4
  -3  -1  -5 218794. 7338.24   2
  -3  -1   5 221229. 6731.30   5
  -4   1  -5 916.695 697.907   4
  -4  -1  -5 443.258 510.066   2
  -4   1   5 1420.11 583.748   5
  -4   1   5 648.426 333.727   4
  -4  -1   5 989.244 540.503   3
  -4  -1   5 273.473 479.514   2
  -4  -1  -5 1189.79 715.931   1
  -4   1   5 474.098 326.839   3
  -4   1   5 648.545 302.716   1
  -4  -1   5 1032.80 524.776   5
  -5  -1  -5 217572. 8646.22   1
  -5  -1   5 223594. 7974.24   5
  -5   1   5 211625. 6954.78   3
  -5  -1  -5 222058. 8924.90   2
  -5   1   5 212343. 5808.72   1
  -5   1   5 206325. 6500.44   4
  -5   1  -5 216347. 8633.68   4
  -5  -1   5 208650. 5500.25   4
  -5  -1   5 216330. 8941.52   2
  -6   1   5 2375.07 687.043   4
  -6  -1  -5 688.113 673.497   1
  -6   1  -5 2297.13 926.368   1
  -6  -1   5 3786.80 1133.65   5
  -6  -1   5 2182.46 1043.77   2
  -6   1   5 2486.36 1210.12   2
  -6   1  -5 628.562 502.288   4
  -6  -1  -5 2185.76 1065.83   2
  -6   1  -5 1376.85 972.883   2
  -7  -1  -5 116236. 7526.95   2
  -7   1  -5 114182. 7280.56   2
  -7   1   5 111536. 5054.89   4
  -7   1  -5 116112. 6858.69   4
  -7   1   5 131603. 7979.04   2
  -7   1  -5 117140. 6844.24   1
  -7  -1   5 126096. 7945.57   2
  -7  -1  -5 117010. 6757.99   1
  -8  -1   5 356.674 893.423   2
  -8   1   5-151.219 1037.36   2
  -8   1  -5-739.342 985.420   2
  -8   1  -5 257.460 811.083   1
  -8  -1  -5 2005.75 1294.21   2
  -9  -1  -5 88086.3 7622.57   2
  -9   1  -5 83946.3 7328.80   2
  -9  -1   5 90128.6 7941.57   2
  -9   1   5 85770.5 7641.04   2
   3   1  -6 3200.88 365.224   1
   2   1  -6 42911.1 1998.08   1
   2   1  -6 40945.5 2267.95   6
   2   1   6 40157.3 2271.39   2
   2   1   6 45123.9 2430.39   6
   2   1  -6 44668.9 2354.44   2
   2  -1  -6 44113.7 2568.64   1
   1   1   6 10908.7 941.452   2
   1   1  -6 12552.7 992.013   2
   1  -1  -6 12811.6 1396.25   1
   0  -1  -6 32738.2 2387.20   1
   0   1  -6 27666.5 2462.60   4
   0   1   6 32039.7 1567.91   2
   0   1  -6 32946.6 1503.65   2
  -1  -1  -6 13202.5 1579.79   1
  -1  -1  -6 12290.9 1051.67   2
  -1  -1   6 13990.3 1016.59   6
  -1  -1  -6 11721.4 906.374   6
  -1  -1   6 11994.1 1093.84   3
  -1  -1   6 13376.9 1156.75   2
  -1   1  -6 11685.2 1614.29   4
  -1   1   6 13424.8 1400.73   1
  -2  -1   6 41791.1 2323.47   3
  -2   1   6 43144.5 2168.44   3
  -2   1  -6 41651.1 3153.78   4
  -2  -1   6 38971.7 2421.16   2
  -2  -1  -6 43052.3 3119.06   1
  -2   1   6 44328.4 2013.64   5
  -2   1   6 42074.7 2416.32   1
  -2  -1  -6 44328.4 2469.89   2
  -3   1   6 2427.17 538.921   3
  -3  -1  -6 3713.11 1011.52   1
  -3  -1   6 4517.80 980.432   2
  -3  -1  -6 2164.30 646.930   2
  -3   1   6 2732.47 569.333   1
  -3  -1   6 3402.95 732.024   5
  -3   1  -6 3738.44 1092.41   4
  -3  -1   6 3693.08 756.616   3
  -3   1   6 3119.73 592.286   5
  -4   1   6 43900.1 2624.77   5
  -4  -1  -6 45416.0 3340.81   2
  -4   1   6 41544.2 2480.75   3
  -4  -1   6 46839.7 2984.40   5
  -4  -1  -6 43840.2 3534.46   1
  -4   1  -6 45126.2 3585.80   4
  -4  -1   6 46172.4 2841.23   3
  -4   1   6 49325.4 2676.82   4
  -4  -1   6 42959.9 3339.68   2
  -4   1   6 46035.0 2212.29   1
  -5   1  -6 1760.69 825.951   4
  -5   1  -6 2666.47 1072.11   1
  -5   1   6 2874.59 691.578   4
  -5  -1  -6 2831.90 939.482   1
  -5   1   6 3155.58 770.631   3
  -5  -1   6 2701.89 866.181   5
  -5  -1   6 3418.91 565.907   4
  -5   1   6 3708.03 891.447   5
  -5  -1   6 3326.19 914.956   3
  -5  -1  -6 2662.19 935.434   2
  -5  -1   6 198.444 526.786   2
  -6   1  -6 45623.8 4000.59   2
  -6   1  -6 34886.4 3537.53   1
  -6  -1   6 42198.9 3550.83   5
  -6  -1  -6 41349.0 3860.72   1
  -6   1   6 40832.1 2686.12   4
  -6   1   6 37240.2 3732.72   2
  -6   1  -6 43599.7 4021.33   4
  -6  -1   6 39319.6 3973.02   2
  -6  -1  -6 45193.7 4125.86   2
  -7   1   6 430.268 403.425   4
  -7   1  -6 1644.69 921.378   4
  -7  -1  -6 745.075 810.749   1
  -7   1   6 2006.97 1252.31   2
  -7   1  -6 2094.90 1006.63   2
  -7  -1  -6-1234.62 991.519   2
  -7  -1   6 713.745 841.950   2
  -7   1  -6 357.160 553.048   1
  -8  -1   6 41450.0 4808.79   2
  -8   1   6 34735.9 4438.08   2
  -8  -1  -6 33628.1 3847.43   1
  -8  -1  -6 35924.6 4480.05   2
  -8   1  -6 26610.5 3788.44   2
  -8   1  -6 31128.4 3795.31   1
  -9  -1  -6-2373.85 1450.31   2
  -9   1   6-481.124 945.482   2
  -9  -1   6 509.006 1079.33   2
  -9   1  -6 2488.52 1414.32   2
   3   1  -7 220813. 5591.81   1
   3  -1  -7 230187. 7024.31   1
   2   1  -7 3744.08 654.204   1
   2   1   7 3888.16 688.149   6
   2  -1  -7 3585.09 797.598   1
   2   1  -7 2501.47 552.249   6
   1   1   7 313985. 7545.20   2
   1   1  -7 337730. 8798.44   1
   1  -1  -7 317868. 9365.54   1
   1   1  -7 322592. 7540.34   2
   0  -1  -7 24817.7 2167.08   1
   0   1  -7 20963.1 1121.19   2
   0  -1  -7 19432.1 947.708   6
   0  -1   7 19904.5 1013.18   6
   0   1   7 21876.4 1174.79   2
  -1  -1   7 338953. 8567.56   3
  -1   1  -7 317724. 10782.8   4
  -1  -1  -7 323520. 10179.0   1
  -2   1  -7 2904.57 1005.30   4
  -2   1   7 3402.61 662.349   3
  -2  -1   7 3424.65 701.641   3
  -2   1   7 4214.52 831.603   1
  -2  -1  -7 4363.75 1053.71   1
  -2  -1   7 4228.16 769.042   2
  -2  -1  -7 2858.08 659.355   2
  -3  -1  -7 239099. 7652.91   2
  -3  -1  -7 221028. 8631.78   1
  -3   1   7 223385. 6731.37   3
  -3   1  -7 231978. 9077.47   4
  -3  -1   7 224045. 7117.43   5
  -3  -1   7 226981. 7709.25   2
  -3  -1   7 224229. 7043.74   3
  -3   1   7 228136. 6503.73   5
  -3   1   7 234736. 6780.91   1
  -4  -1  -7 1220.68 787.001   1
  -4  -1   7 225.156 377.235   3
  -4   1   7 41.5910 201.722   1
  -4  -1  -7 1057.59 637.977   2
  -4  -1   7 937.973 644.230   2
  -4   1   7 1117.22 497.321   4
  -4  -1   7 60.9358 351.679   5
  -4   1   7 241.408 310.628   3
  -4   1   7 568.320 427.896   5
  -4   1  -7 1762.30 951.097   4
  -4   1  -7-198.647 524.303   1
  -5  -1  -7 215545. 9232.51   1
  -5  -1   7 227730. 8166.57   5
  -5  -1   7 204943. 7542.17   3
  -5   1   7 188667. 8299.83   2
  -5   1   7 205669. 7136.15   3
  -5  -1   7 211553. 5991.65   4
  -5   1  -7 178568. 7895.32   2
  -5   1  -7 209616. 9029.65   1
  -5  -1   7 207674. 8889.49   2
  -5   1   7 206565. 6766.61   4
  -5  -1  -7 211306. 8707.37   2
  -5   1  -7 221581. 9567.28   4
  -5   1   7 209540. 7450.62   5
  -6   1   7 1838.85 608.330   4
  -6  -1   7 3077.79 1307.42   2
  -6   1  -7 1658.61 936.326   2
  -6  -1   7 2077.00 905.201   5
  -6   1  -7 2532.77 1105.85   1
  -6   1   7 1812.95 871.438   2
  -6  -1  -7 2693.22 1069.69   2
  -6  -1  -7 2361.07 1149.46   1
  -6   1   7 2290.83 763.310   3
  -6   1  -7 1240.90 1132.02   4
  -7   1   7 115146. 5225.04   4
  -7   1  -7 124503. 7590.15   2
  -7   1  -7 117613. 7363.27   1
  -7   1  -7 134923. 8023.56   4
  -7  -1   7 132510. 7327.54   5
  -7  -1  -7 125536. 7576.49   1
  -7  -1  -7 124835. 7800.95   2
  -7  -1   7 125379. 8007.41   2
  -7   1   7 130349. 8020.08   2
  -8   1  -7 183.483 845.433   2
  -8  -1  -7-121.888 1021.85   2
  -8   1  -7-1007.37 1033.94   1
  -8   1   7 1845.04 1340.82   2
  -8  -1  -7 1859.50 1103.58   1
  -8  -1   7 2196.34 1407.19   2
  -9  -1   7 87970.1 7904.93   2
  -9  -1  -7 95847.9 7930.25   2
  -9   1  -7 84010.6 7335.05   2
  -9   1   7 92239.6 7996.53   2
   3   1  -8 2868.04 551.790   1
   3  -1  -8 3322.51 759.291   1
   2   1  -8 103864. 4119.05   1
   2   1   8 111093. 3998.22   6
   2  -1  -8 112752. 4889.00   1
   2   1  -8 108191. 3843.51   6
   1   1  -8 1705.71 611.662   1
   1  -1  -8 747.131 474.607   1
   1   1  -8 685.913 234.106   2
   1   1   8 877.737 275.530   2
   0  -1   8 109682. 2838.33   6
   0   1   8 106125. 2912.77   2
   0  -1  -8 112612. 5186.62   1
   0  -1  -8 101163. 2671.22   6
   0   1  -8 108162. 2913.07   2
  -1  -1  -8 1374.22 682.848   1
  -1   1  -8 1419.26 830.968   4
  -2  -1  -8 108707. 5594.55   1
  -2   1  -8 115910. 6217.11   4
  -2   1   8 106165. 4125.37   3
  -2  -1   8 106006. 4283.06   2
  -2  -1   8 106347. 4303.63   3
  -2  -1  -8 108189. 4163.64   2
  -3  -1  -8 4227.52 1186.46   1
  -3  -1   8 1337.97 627.147   2
  -3   1   8 3489.41 758.690   1
  -3  -1  -8 2685.71 711.992   2
  -3   1   8 1785.00 488.579   5
  -3   1   8 1785.95 569.517   3
  -3   1  -8 1178.84 705.560   1
  -3  -1   8 2364.81 662.730   3
  -3   1  -8 1338.00 806.779   4
  -3  -1   8 3306.56 799.431   5
  -4  -1   8 79133.7 4066.86   3
  -4   1   8 74063.6 3194.32   1
  -4  -1   8 76109.9 4072.95   5
  -4   1   8 79377.7 3818.75   3
  -4  -1  -8 74552.6 5080.05   1
  -4  -1   8 78598.1 4610.50   2
  -4  -1  -8 72207.3 4302.75   2
  -4   1  -8 76788.0 5076.37   1
  -4   1  -8 76197.5 5399.00   4
  -4   1   8 78324.9 3739.19   5
  -5   1   8 291.732 422.281   4
  -5   1  -8-132.836 782.486   1
  -5  -1  -8 76.2320 427.960   2
  -5  -1   8 649.924 504.387   3
  -5  -1   8 376.163 528.000   5
  -5  -1   8 2208.12 919.417   2
  -5   1   8 560.823 478.150   5
  -5  -1  -8 779.824 792.977   1
  -5   1   8 951.052 728.526   2
  -5   1   8 330.887 438.880   3
  -5   1  -8 2142.86 887.850   2
  -5   1  -8 774.388 800.698   4
  -6   1   8 51945.5 3546.26   3
  -6   1  -8 55492.7 4467.94   2
  -6   1  -8 53804.2 4990.51   4
  -6   1   8 53540.0 4572.05   2
  -6  -1   8 48366.6 3893.27   5
  -6   1   8 52017.7 3203.95   4
  -6  -1  -8 60381.8 4795.34   2
  -6  -1   8 54614.1 4720.30   2
  -6   1  -8 49188.2 4559.56   1
  -6  -1  -8 57400.2 4953.11   1
  -6  -1   8 48322.7 3670.01   3
  -6   1   8 57152.2 4000.69   5
  -7  -1  -8 1282.27 938.040   2
  -7   1  -8 1576.25 1074.05   4
  -7  -1   8 752.366 937.186   5
  -7   1  -8 48.1540 626.257   2
  -7  -1  -8 2.85196 750.232   1
  -7  -1   8 327.797 802.827   2
  -7   1   8 561.368 856.174   2
  -7   1  -8 467.012 686.393   1
  -8   1  -8 32867.7 4169.84   1
  -8  -1  -8 30123.7 3954.40   1
  -8  -1   8 33562.0 4443.74   2
  -8   1   8 30410.8 4227.80   2
  -8   1  -8 31860.1 4092.81   2
  -8  -1  -8 28191.4 3930.47   2
  -9  -1  -8 3023.16 1553.87   2
  -9  -1   8 1780.99 1418.42   2
  -9   1  -8 152.999 837.863   2
  -9   1   8 248.335 937.909   2
   3  -1  -9 202284. 7204.47   1
   3   1  -9 201714. 6023.75   1
   2  -1  -9 12782.8 1684.72   1
   2   1  -9 15058.5 1526.83   1
   1   1  -9 278694. 8643.21   1
   1  -1  -9 276094. 9153.41   1
   0   1  -9 4888.22 1043.00   1
   0  -1  -9 6039.20 1211.29   1
  -1  -1  -9 278989. 9814.48   1
  -1   1  -9 283715. 9575.40   1
  -2  -1  -9 13892.8 2029.22   1
  -2   1  -9 14265.3 1986.29   1
  -2  -1   9 15308.0 1591.36   3
  -2  -1   9 12037.4 1310.37   2
  -2  -1  -9 14543.1 1362.78   2
  -2   1  -9 13551.4 2197.11   4
  -3  -1  -9 196692. 8621.78   1
  -3  -1   9 197006. 6837.53   3
  -3   1  -9 192687. 8333.91   1
  -3  -1   9 208815. 7110.79   5
  -3   1   9 188480. 6464.73   3
  -3   1   9 202038. 6315.32   5
  -3   1  -9 194208. 9066.73   4
  -3  -1  -9 203968. 6972.85   2
  -3  -1   9 189657. 6989.34   2
  -4  -1  -9 651.458 766.940   1
  -4  -1   9-79.0139 422.735   5
  -4   1  -9 236.305 587.431   1
  -4  -1  -9 326.258 422.511   2
  -4   1  -9 212.700 902.570   4
  -4  -1   9 354.939 451.315   3
  -4   1   9 597.210 447.017   3
  -4   1   9 675.093 464.039   5
  -4  -1   9 178.987 416.758   2
  -4   1   9 278.541 504.142   2
  -4   1  -9 367.177 390.473   2
  -5   1   9 167708. 7657.31   2
  -5   1  -9 146400. 7013.53   2
  -5  -1  -9 170046. 8636.52   1
  -5   1  -9 161643. 8930.59   4
  -5   1   9 161631. 6389.32   3
  -5  -1   9 167623. 7143.39   5
  -5  -1   9 165742. 6863.29   3
  -5   1   9 170049. 6682.19   5
  -5   1  -9 182059. 8822.52   1
  -5  -1  -9 164323. 7522.08   2
  -5  -1   9 149456. 7495.45   2
  -5   1   9 167166. 6346.43   4
  -6  -1   9-684.677 767.476   2
  -6   1   9 201.235 340.138   4
  -6   1  -9 1352.67 980.624   1
  -6  -1  -9-125.371 802.187   2
  -6  -1   9-985.148 723.000   5
  -6   1   9 335.770 655.174   2
  -6   1  -9 645.376 683.798   2
  -6  -1  -9 248.073 792.828   1
  -6   1   9 614.346 568.503   3
  -6   1   9 1080.05 708.422   5
  -6  -1   9 58.3009 493.667   3
  -6   1  -9-1387.31 1039.96   4
  -7  -1  -9 94854.1 6779.40   2
  -7   1  -9 93298.1 7249.79   4
  -7  -1   9 106691. 6586.44   5
  -7   1  -9 90656.4 6859.45   1
  -7   1   9 103019. 7138.41   2
  -7  -1  -9 109938. 7501.32   1
  -7  -1   9 99631.2 7125.04   2
  -7   1  -9 97249.5 6679.54   2
  -8  -1  -9 3060.59 1387.61   1
  -8  -1   9 6302.10 2021.01   2
  -8   1   9 4752.02 1785.65   2
  -8  -1  -9 3999.12 1602.27   2
  -8   1  -9 3222.99 1462.40   2
  -8   1  -9 2203.59 1394.96   1
   3   1 -10 1228.35 540.871   1
   3  -1 -10 1873.95 786.203   1
   2  -1 -10 39646.3 3095.26   1
   2   1 -10 36939.9 2695.44   1
   1  -1 -10 395.801 508.611   1
   1   1 -10 945.125 565.197   1
   0   1 -10 42360.3 3217.35   1
   0  -1 -10 38586.5 3277.53   1
  -1   1 -10 591.760 621.491   1
  -1   1  10 562.514 174.667   2
  -1   1 -10 311.850 142.012   2
  -1  -1 -10-323.617 526.757   1
  -2   1  10 36481.5 2069.01   2
  -2   1 -10 40370.5 2082.11   2
  -2  -1 -10 46235.6 3875.96   1
  -2  -1 -10 34962.1 2192.66   2
  -2   1 -10 45753.7 4264.72   4
  -2  -1  10 43149.7 2832.18   3
  -2  -1  10 32813.7 2261.00   2
  -2   1 -10 43842.3 3713.17   1
  -3   1  10 2052.59 681.534   3
  -3   1 -10 2285.07 613.397   2
  -3   1 -10 1925.97 948.988   1
  -3  -1  10 2978.91 843.659   5
  -3  -1  10 1280.55 556.348   2
  -3  -1  10 1893.11 686.158   3
  -3   1  10 2492.51 720.068   2
  -3   1  10 2003.83 640.503   5
  -3  -1 -10 1719.18 574.452   2
  -3   1 -10 931.375 850.123   4
  -3  -1 -10 631.329 728.017   1
  -4  -1 -10 42033.8 4060.14   1
  -4   1  10 37671.5 2785.15   3
  -4   1 -10 39940.5 3922.73   1
  -4  -1  10 40746.1 3053.57   5
  -4  -1  10 37349.9 2916.57   3
  -4  -1 -10 34533.9 2900.34   2
  -4   1 -10 36195.0 2867.25   2
  -4   1 -10 41609.6 4429.72   4
  -4   1  10 30762.5 2786.16   2
  -4  -1  10 36642.5 3121.88   2
  -4   1  10 38210.4 2680.90   5
  -5   1  10 381.808 391.837   5
  -5  -1  10 506.287 556.181   3
  -5  -1 -10-271.357 508.523   2
  -5  -1  10-338.550 606.143   5
  -5   1 -10 554.876 814.753   1
  -5   1  10-83.4816 454.886   2
  -5   1  10 207.543 366.806   4
  -5   1  10-153.201 467.546   3
  -5  -1  10 2087.97 889.283   2
  -5   1 -10 1295.40 714.408   2
  -5  -1 -10-333.282 712.616   1
  -5   1 -10 1006.61 919.111   4
  -6  -1  10 33609.9 3164.50   3
  -6   1  10 31678.8 2905.87   3
  -6   1 -10 29727.2 3831.59   1
  -6   1 -10 29887.9 3317.62   2
  -6   1  10 32415.0 2690.45   4
  -6  -1 -10 26004.5 3174.46   2
  -6  -1  10 31313.0 3601.97   2
  -6   1  10 25242.0 3172.00   2
  -6  -1  10 32192.3 3269.27   5
  -6   1  10 32791.4 3046.65   5
  -6  -1 -10 38219.3 4284.46   1
  -6   1 -10 30977.6 4072.97   4
  -7  -1  10-65.8242 865.884   5
  -7  -1 -10 2139.84 1170.73   2
  -7  -1  10 588.709 669.683   2
  -7   1  10 1382.53 880.352   3
  -7   1  10 1332.84 1149.29   2
  -7   1 -10-318.523 747.948   2
  -7   1 -10-773.626 943.560   1
  -7  -1 -10 262.694 838.970   1
  -8  -1  10 25143.6 3943.07   2
  -8   1 -10 19725.3 3452.67   1
  -8  -1 -10 25084.4 3775.43   2
  -8  -1  10 27433.0 3721.88   5
  -8  -1 -10 22131.6 3609.14   1
  -8   1 -10 29605.5 3997.49   2
  -8   1  10 20736.5 3495.73   2
   3  -1 -11 125533. 5847.84   1
   3   1 -11 128320. 5149.37   1
   2  -1 -11 3170.66 981.011   1
   2   1 -11 1800.37 684.939   1
   1   1 -11 156953. 6612.75   1
   1  -1 -11 148583. 6815.76   1
   0  -1 -11 10532.1 1773.98   1
   0   1 -11 15621.9 2054.38   1
  -1  -1 -11 168837. 7733.15   1
  -1   1 -11 151819. 7228.19   1
  -2   1 -11 284.544 602.375   1
  -2   1  11 1923.36 475.411   2
  -2   1 -11 1559.46 420.074   2
  -2  -1  11 1226.24 624.373   3
  -2  -1 -11 2553.99 1010.46   1
  -3   1 -11 131951. 7271.03   1
  -3   1  11 127969. 5132.65   2
  -3   1  11 132309. 5262.89   5
  -3   1 -11 129519. 4978.45   2
  -3   1  11 131426. 5496.92   3
  -3  -1 -11 117905. 5047.17   2
  -3  -1  11 142484. 6073.54   5
  -3   1 -11 113653. 7479.33   4
  -3  -1  11 129979. 5464.75   2
  -3  -1  11 132836. 5731.49   3
  -3  -1 -11 129175. 7312.67   1
  -4   1  11-143.265 436.945   2
  -4  -1  11 224.668 481.487   2
  -4  -1  11 183.595 480.266   5
  -4   1  11 703.617 470.110   5
  -4   1 -11 1464.99 730.653   2
  -4  -1  11 1115.48 603.424   3
  -4   1  11 713.394 517.288   3
  -4  -1 -11 1976.13 1005.64   1
  -4   1 -11 1647.13 1098.50   1
  -4   1 -11 1697.04 1168.16   4
  -4  -1 -11 738.961 521.946   2
  -5  -1 -11 126286. 7862.02   1
  -5   1 -11 121091. 6152.10   2
  -5  -1 -11 107012. 5993.10   2
  -5   1  11 126951. 5811.74   5
  -5   1 -11 118960. 7551.04   1
  -5  -1  11 119249. 6166.72   5
  -5   1 -11 126407. 8376.89   4
  -5   1  11 123809. 5797.44   3
  -5  -1  11 118581. 5985.51   3
  -5  -1  11 119972. 6569.69   2
  -5   1  11 106965. 5414.38   4
  -5   1  11 120005. 6359.37   2
  -6  -1  11 3764.25 1235.58   3
  -6   1 -11 2416.57 1020.49   2
  -6  -1  11 4873.64 1496.18   2
  -6  -1 -11 5453.32 1759.66   1
  -6   1  11 706.967 521.807   4
  -6  -1  11 4104.83 1312.02   5
  -6   1  11 2105.47 873.098   5
  -6  -1 -11 1618.09 1047.49   2
  -6   1  11 2356.59 882.291   3
  -6   1 -11 1479.53 1221.28   1
  -6   1 -11 3808.98 1603.48   4
  -6   1  11 1333.04 830.485   2
  -7  -1  11 81529.8 5526.70   3
  -7   1 -11 84063.7 6972.18   1
  -7  -1 -11 88199.8 6477.96   2
  -7   1 -11 78286.9 7087.09   4
  -7  -1  11 87801.5 6117.90   5
  -7   1  11 81224.9 5273.89   3
  -7   1  11 88990.1 6658.42   2
  -7  -1  11 89424.0 6764.97   2
  -7   1 -11 78723.0 5997.68   2
  -7  -1 -11 83856.6 6959.92   1
  -8   1  11 159.416 888.847   2
  -8  -1  11 781.825 1106.17   2
  -8  -1 -11 2095.74 1556.67   1
  -8  -1  11 2750.20 1233.90   5
  -8   1 -11 1718.37 1372.71   1
   3   1 -12 1173.00 594.319   1
   3  -1 -12 1699.40 763.546   1
   2   1 -12 77051.0 4387.23   1
   2  -1 -12 69788.5 4600.13   1
   1   1 -12 3906.53 1051.06   1
   1  -1 -12 3988.36 1162.50   1
   0   1 -12 91821.7 5356.98   1
   0  -1 -12 85716.0 5367.31   1
  -1   1 -12 2439.67 941.319   1
  -1  -1 -12 2809.86 1095.68   1
  -2  -1 -12 79123.3 5558.29   1
  -2   1 -12 84447.0 5624.16   1
  -2  -1  12 76462.9 4206.73   3
  -3   1 -12 1123.58 886.605   1
  -3   1  12 1315.65 518.856   2
  -3   1  12 1746.79 707.536   5
  -3   1  12 1411.98 622.188   3
  -3  -1  12 209.392 358.320   2
  -3  -1  12 3715.77 1006.46   3
  -3  -1 -12 2754.71 1106.57   1
  -4  -1 -12 64461.6 5509.97   1
  -4   1 -12 73644.8 5762.30   1
  -4   1  12 66927.9 3878.29   5
  -4  -1  12 58510.2 4033.01   2
  -4  -1  12 67428.2 4329.52   5
  -4  -1  12 67080.1 4268.00   3
  -4   1  12 68611.4 4110.08   3
  -4   1  12 65205.9 4021.39   2
  -5  -1  12 2115.26 933.134   5
  -5  -1  12 902.707 914.773   2
  -5   1  12 1391.37 728.841   5
  -5  -1 -12 3354.40 1604.82   1
  -5  -1  12 1567.60 769.729   3
  -5   1  12 2348.60 876.283   3
  -5   1 -12 2210.93 1208.18   1
  -6  -1 -12 48193.3 5184.92   1
  -6   1 -12 49041.6 5198.23   1
  -6   1  12 52573.6 3785.36   4
  -6  -1  12 46746.3 4002.05   3
  -6  -1  12 51867.0 4367.37   5
  -6   1  12 43155.6 3667.52   3
  -7   1  12 482.226 643.644   3
  -7  -1  12 903.998 872.225   5
  -7   1 -12 809.473 1155.14   1
  -7  -1  12 2.33206 589.577   3
  -7  -1 -12 2401.92 1655.56   1
  -8  -1 -12 41269.0 5298.68   1
  -8  -1  12 36520.2 4353.66   5
   3  -1 -13 120708. 6253.37   1
   2  -1 -13 4846.64 1387.43   1
   2   1 -13 5098.14 1238.24   1
   1   1 -13 134641. 6647.31   1
   1  -1 -13 133632. 6970.42   1
   0  -1 -13 5862.76 1548.84   1
   0   1 -13 8129.94 1672.58   1
  -1   1 -13 146233. 7623.18   1
  -1  -1 -13 145990. 7749.85   1
  -2  -1  13 2810.38 950.852   3
  -2  -1 -13 4197.90 1428.35   1
  -2   1 -13 5772.35 1649.00   1
  -3  -1 -13 117890. 7425.32   1
  -3   1 -13 120806. 7462.87   1
  -3   1  13 106234. 5383.37   3
  -3  -1  13 115266. 5695.69   3
  -3   1  13 126361. 5534.55   5
  -4   1  13 1734.50 735.086   5
  -4  -1  13 140.710 584.800   3
  -4  -1 -13 666.445 786.825   1
  -4  -1  13-235.852 683.233   5
  -4   1  13-804.243 624.785   3
  -4   1 -13-465.775 833.585   1
  -5  -1 -13 90809.4 7129.99   1
  -5   1 -13 85221.5 6869.91   1
  -5   1  13 96579.6 5451.26   3
  -5  -1  13 95453.2 5611.02   3
  -5   1  13 98715.4 5351.60   5
  -5  -1  13 98233.8 5795.45   5
  -6  -1  13 1758.93 790.591   5
  -6   1  13 692.602 631.131   4
  -6  -1 -13 1840.58 1262.86   1
  -6   1 -13 1279.78 1095.91   1
  -6   1  13 818.463 700.092   3
  -6  -1  13 504.629 681.342   3
  -7   1 -13 58377.4 6156.22   1
  -7  -1  13 57764.5 5145.29   5
  -7  -1  13 59220.1 4929.44   3
  -7   1  13 56652.3 4619.11   3
  -7  -1 -13 65796.9 6504.47   1
   3  -1 -14-276.896 535.442   1
   2   1 -14 33662.7 3179.77   1
   2  -1 -14 34236.8 3485.18   1
   1  -1 -14 2154.70 846.665   1
   1   1 -14 999.197 721.933   1
   0   1 -14 40370.9 3791.37   1
   0  -1 -14 36917.2 3762.26   1
  -1  -1 -14 667.546 742.118   1
  -1   1 -14 26.5103 681.093   1
  -2  -1 -14 28568.3 3606.22   1
  -2   1  14 35936.5 2999.20   3
  -2  -1  14 33623.0 2965.42   3
  -3  -1 -14 1310.31 1029.85   1
  -3   1  14 2093.13 798.361   5
  -3   1 -14 1940.89 1324.52   1
  -3  -1  14 172.434 613.987   3
  -3   1  14-147.615 432.439   3
  -4   1  14 35791.1 3180.73   3
  -4   1  14 33223.6 2892.84   5
  -4  -1  14 31993.1 3116.57   3
  -4   1 -14 33095.5 4198.63   1
  -4  -1 -14 35551.6 4379.22   1
  -4  -1  14 32965.8 3243.54   5
  -5  -1 -14-1921.67 1320.77   1
  -5  -1  14 443.633 605.346   3
  -5   1 -14 256.698 1021.65   1
  -5   1  14 1189.83 874.229   3
  -5  -1  14 705.586 677.647   5
  -6   1  14 25121.3 2853.07   4
  -6   1  14 24276.1 2868.23   3
  -6   1 -14 20915.2 3595.89   1
  -6  -1  14 23285.1 3110.22   5
  -6  -1  14 19168.3 2708.01   3
  -6  -1 -14 24392.5 3966.59   1
  -7   1  14-544.168 732.229   3
  -7  -1  14-1906.07 1136.97   5
   2  -1 -15 2003.13 976.965   1
   2   1 -15 2416.71 900.761   1
   1   1 -15 90761.5 5881.37   1
   1  -1 -15 111754. 6793.57   1
   0  -1 -15 6501.04 1759.87   1
   0   1 -15 5288.81 1503.75   1
  -1   1 -15 101756. 6793.05   1
  -1  -1  15 114646. 5818.82   3
  -1  -1 -15 110109. 7132.45   1
  -2   1  15 1473.53 699.956   3
  -2  -1  15 2239.16 986.622   3
  -2   1 -15 1489.56 1193.84   1
  -2  -1 -15 1143.53 1037.29   1
  -3   1  15 107953. 5525.37   5
  -3   1 -15 102073. 7347.50   1
  -3  -1  15 87553.7 5386.02   3
  -3   1  15 97031.1 5478.89   3
  -3  -1 -15 105715. 7547.33   1
  -4   1  15 648.092 698.644   3
  -4  -1  15 495.890 746.653   5
  -4  -1  15-266.658 662.315   3
  -4   1  15-397.271 537.816   5
  -4   1 -15 721.756 1029.29   1
  -4  -1 -15-107.678 969.184   1
  -5  -1  15 83442.0 5687.10   5
  -5  -1  15 79535.8 5448.02   3
  -5   1  15 85704.7 5418.70   3
  -5   1 -15 87849.0 7400.52   1
  -5  -1 -15 71398.5 6717.94   1
  -6   1  15 1406.07 874.759   4
  -6  -1 -15 2052.44 1388.21   1
  -6   1  15 448.026 539.589   3
  -6  -1  15-272.092 710.465   3
  -6  -1  15 341.738 798.517   5
  -7  -1  15 68124.4 5842.31   5
   2  -1 -16 30201.6 3554.32   1
   1   1 -16 1255.73 842.480   1
   1  -1 -16 272.051 685.454   1
   0   1 -16 22428.8 3150.58   1
   0  -1 -16 25724.7 3384.14   1
  -1  -1 -16-591.367 861.258   1
  -1  -1  16 1312.02 916.874   3
  -1   1 -16-927.648 978.182   1
  -2   1 -16 20716.0 3230.43   1
  -2   1  16 23916.0 2690.69   3
  -2  -1 -16 20616.0 3300.92   1
  -2  -1  16 24306.1 2733.42   3
  -3  -1  16-76.7169 667.900   3
  -3  -1 -16 1039.17 1255.84   1
  -3   1  16 424.546 526.585   5
  -3   1  16 1268.03 874.009   3
  -3   1 -16 1137.21 1336.40   1
  -4  -1 -16 15532.4 3174.00   1
  -4  -1  16 22396.4 2821.92   5
  -4   1 -16 26379.2 3961.17   1
  -4  -1  16 21017.4 2704.75   3
  -4   1  16 18920.6 2539.62   3
  -5  -1  16 1240.35 881.670   5
  -5  -1 -16-1054.91 1207.81   1
  -5   1  16-317.485 639.120   3
  -5   1 -16 124.932 1034.44   1
  -5  -1  16 747.634 791.782   3
  -6  -1  16 19205.3 2937.15   5
   1   1 -17 95327.0 6427.23   1
   1  -1 -17 78128.0 6204.13   1
   0   1 -17 1251.80 953.630   1
   0  -1 -17 1001.53 1128.85   1
  -1   1 -17 98468.4 7078.19   1
  -1  -1  17 92163.3 5602.80   3
  -1  -1 -17 88199.8 6865.92   1
  -2   1  17 3066.38 1107.85   3
  -2   1 -17 3552.59 1548.54   1
  -2  -1 -17 4068.61 1668.68   1
  -2  -1  17 3491.21 1136.59   3
  -3  -1  17 82714.1 5533.74   3
  -3   1  17 97576.9 5812.92   3
  -3   1 -17 89149.1 7320.31   1
  -3  -1 -17 77059.9 6903.79   1
  -4   1 -17-1111.03 1131.19   1
  -4  -1  17-2.28810 785.129   3
  -4  -1  17 1099.74 871.995   5
  -4  -1 -17 23.8931 962.999   1
  -4   1  17-1258.70 847.619   3
  -5   1  17 64479.8 5038.95   3
  -5  -1  17 59870.3 5044.58   5
   1  -1 -18 832.076 832.668   1
   1   1 -18 136.788 728.189   1
   0  -1 -18 37211.5 4431.95   1
   0   1 -18 31792.5 3999.43   1
  -1   1 -18 255.453 886.751   1
  -1  -1 -18-148.060 844.287   1
  -1  -1  18-102.350 605.741   3
  -2  -1  18 32044.9 3410.39   3
  -2   1 -18 27848.6 4099.08   1
  -2  -1 -18 25216.3 3962.98   1
  -2   1  18 35466.3 3546.85   3
  -3   1 -18 1523.10 1426.91   1
  -3  -1 -18 605.106 1195.19   1
  -3  -1  18 1092.81 816.623   3
  -3   1  18-935.139 803.622   3
  -4  -1  18 33017.6 3669.08   5
  -5  -1  18 821.751 854.176   5
   1  -1 -19 48361.6 5152.11   1
   0  -1 -19 2128.23 1151.40   1
   0   1 -19 967.818 1006.29   1
  -1  -1 -19 41829.4 5023.67   1
  -1  -1  19 51083.1 4429.78   3
  -1   1 -19 39708.1 4807.89   1
  -2   1 -19 752.485 1121.45   1
  -2   1  19-410.756 796.937   3
  -2  -1 -19-1341.90 1271.72   1
  -3  -1  19 55368.1 4837.60   5
  -4  -1  19 1034.49 917.397   5
   0   1 -20 21342.6 3569.12   1
   0  -1 -20 23952.6 3831.54   1
  -1  -1 -20-1780.91 1365.71   1
  -1   1 -20 2300.79 1379.83   1
   4   2   0 302298. 8428.71   1
   4  -2   0 293996. 7230.82   3
   3   2   0 85.9148 245.664   1
   3  -2   0-7.47048 134.211   3
   2  -2   0 712434. 13576.7   3
   2   2   0 718985. 15989.8   1
   1   2   0-51.8136 280.336   2
   1   2   0-91.9718 112.472   4
   1   2   0-55.5224 214.717   1
   1   2   0 85.6050 143.749   5
   1  -2   0-260.982 231.439   4
   0  -2   0 331613. 6934.30   5
   0   2   0 319448. 7305.27   4
   0  -2   0 315049. 7231.01   4
  -1  -2   0 136.100 305.841   2
  -1   2   0-166.302 247.508   4
  -1  -2   0-7.73483 144.196   5
  -1  -2   0-16.3906 107.768   4
  -2  -2   0 720393. 16772.4   6
  -2  -2   0 704583. 16265.8   1
  -2  -2   0 728570. 15820.2   5
  -2  -2   0 717637. 17360.5   2
  -2   2   0 723110. 15715.5   4
  -3  -2   0 1.88461 342.339   5
  -3   2   0-211.233 407.642   4
  -3  -2   0-233.817 436.517   2
  -3  -2   0-115.629 439.627   6
  -3  -2   0 34.2068 269.653   1
  -4   2   0 295279. 8683.94   4
  -4  -2   0 303938. 10442.1   2
  -4  -2   0 301020. 8688.08   1
  -5   2   0 288.106 482.435   4
  -5  -2   0 62.9689 338.248   1
  -5  -2   0-106.282 544.557   2
  -6  -2   0 164391. 6329.12   1
  -6   2   0 168171. 6803.99   4
  -6  -2   0 154002. 8347.68   2
  -7  -2   0 330.906 775.032   2
  -7   2   0-155.992 659.222   4
  -8   2   0 165177. 7694.84   4
  -8  -2   0 160160. 9985.71   2
  -8   2   0 136933. 8896.29   2
  -9  -2   0 630.556 1091.64   2
  -9   2   0 1794.69 1804.73   2
   4  -2   1-1247.19 370.133   3
   4  -2  -1-141.735 210.126   3
   3   2   1 85275.5 3867.33   1
   3   2   1 75040.3 2263.24   4
   3  -2  -1 85981.9 2565.25   3
   3   2  -1 88107.9 3442.75   1
   2   2  -1 327.165 131.544   4
   2   2   1 117.453 288.746   1
   2   2  -1 242.179 328.234   1
   1  -2  -1 121736. 3700.77   4
   1   2  -1 119921. 3493.25   3
   1   2   1 120434. 3497.68   5
   1   2  -1 120260. 3268.54   4
   1   2   1 116660. 4401.37   1
   1   2   1 126702. 4881.99   2
   1   2  -1 124658. 4803.68   2
   1  -2   1 125254. 3825.54   4
   1   2   1 124164. 3201.12   4
   0   2   1 978.262 424.015   1
   0  -2   1 870.066 179.093   3
   0   2  -1 1252.41 210.922   3
   0   2  -1 771.582 237.192   4
   0  -2   1 909.409 260.494   4
   0   2   1 719.155 238.717   4
   0  -2  -1 1227.25 213.607   5
   0  -2  -1 1018.72 258.022   4
  -1  -2   1 119016. 3592.37   5
  -1  -2  -1 120664. 3613.39   5
  -1  -2  -1 120009. 4628.14   1
  -1  -2   1 124050. 3155.99   4
  -1  -2   1 129779. 4979.19   2
  -1  -2  -1 110212. 4654.65   2
  -1   2   1 124785. 3778.77   4
  -1   2  -1 124395. 3957.63   4
  -2   2  -1-23.2929 259.115   4
  -2  -2  -1-42.9040 319.746   2
  -2  -2   1 810.252 518.017   2
  -2  -2   1 537.712 467.633   6
  -2  -2   1 192.107 73.1260   4
  -2  -2   1 136.649 241.564   5
  -2  -2  -1 137.686 275.939   5
  -2   2   1 253.128 296.503   4
  -2  -2  -1 106.400 355.350   1
  -2  -2  -1 597.006 464.113   6
  -3  -2   1 83673.0 4227.97   6
  -3  -2   1 83447.5 4498.87   2
  -3   2   1 87689.3 3570.96   4
  -3  -2   1 81757.5 3734.66   5
  -3   2  -1 79272.9 3681.99   4
  -3  -2   1 88155.6 3578.26   1
  -3  -2  -1 86263.0 4550.83   2
  -3  -2  -1 84729.5 3914.58   1
  -3  -2  -1 85436.3 4244.46   6
  -4  -2  -1-234.325 530.554   2
  -4   2  -1-112.489 306.220   4
  -4  -2   1 821.787 685.939   2
  -4  -2  -1-182.391 334.074   1
  -4  -2   1 394.948 477.420   5
  -4   2   1-206.298 434.558   4
  -4  -2   1-66.5775 257.504   1
  -5   2  -1 66149.4 3821.06   4
  -5  -2  -1 73683.9 5035.72   2
  -5  -2   1 71651.2 3442.90   1
  -5  -2  -1 67421.2 3810.58   1
  -5   2   1 70316.0 3720.61   4
  -5  -2   1 66536.1 4836.85   2
  -6   2  -1 55.8441 481.298   4
  -6   2   1-176.029 458.137   4
  -6  -2   1-184.030 746.643   2
  -6  -2   1-408.432 404.163   1
  -6  -2  -1 61.7559 382.407   1
  -6  -2  -1-2.49720 595.541   2
  -7   2  -1 48805.6 3827.13   4
  -7   2   1 51176.9 3725.96   4
  -7  -2   1 48629.9 4941.41   2
  -8  -2  -1 764.340 1004.40   2
  -8   2  -1-1047.55 785.126   4
  -8  -2   1 688.258 1020.61   2
  -8   2   1-2371.62 1345.15   2
  -8   2   1-1947.78 950.072   4
  -8   2  -1 720.038 873.731   2
  -9   2   1 29630.7 4383.79   2
  -9  -2  -1 31277.8 4660.43   2
  -9  -2   1 28438.1 4474.68   2
  -9   2  -1 26346.8 4024.23   2
   5   2   2 381.219 159.528   4
   4   2  -2 225843. 6043.21   1
   4   2   2 215513. 5295.08   4
   3   2  -2 20.4903 175.090   1
   3  -2  -2 403.755 230.133   5
   3  -2  -2 328.217 156.004   3
   3   2   2 297.907 269.560   4
   2  -2  -2 430216. 8918.49   5
   2   2  -2 424605. 10313.1   1
   2   2  -2 439884. 9420.15   4
   2   2   2 460673. 11532.7   1
   1   2   2 1139.43 445.404   1
   1   2  -2 551.933 220.458   4
   1   2   2 769.900 398.628   2
   1   2  -2 325.692 216.500   2
   1  -2   2 438.259 269.460   4
   1   2  -2 381.595 187.262   3
   1   2   2 648.537 261.127   5
   0  -2   2 140023. 3424.24   3
   0   2   2 133027. 3137.54   5
   0  -2  -2 134040. 5067.17   1
   0   2  -2 134735. 3341.35   3
   0   2  -2 139645. 4189.64   4
   0  -2   2 135996. 4043.84   4
   0   2   2 127781. 4795.86   1
   0   2   2 137096. 3893.55   4
  -1  -2  -2 764.518 432.316   2
  -1  -2   2 1362.81 543.734   2
  -1  -2   2 710.069 231.709   4
  -1   2   2 818.765 302.187   4
  -1  -2  -2 341.944 318.514   6
  -1  -2   2 1171.54 442.200   6
  -1  -2   2 874.154 311.039   5
  -1  -2   2 1085.38 315.013   3
  -1   2   2 787.437 382.731   1
  -1   2  -2 816.975 367.834   4
  -1  -2  -2 506.684 404.904   1
  -2   2   2 437026. 9059.01   3
  -2  -2   2 458395. 10614.9   5
  -2  -2  -2 457757. 11455.9   6
  -2  -2   2 450515. 11464.3   6
  -2   2  -2 452978. 11053.6   4
  -2  -2  -2 453451. 11734.9   1
  -2   2   2 443080. 10370.6   4
  -2  -2   2 446849. 12091.7   2
  -2  -2   2 436549. 8962.27   4
  -2  -2  -2 439841. 11967.6   2
  -3  -2  -2-149.172 394.462   2
  -3   2   2 399.869 342.627   4
  -3  -2   2-31.2916 465.222   2
  -3  -2  -2 270.450 407.132   6
  -3   2  -2 203.600 293.124   4
  -3  -2   2 693.892 390.609   5
  -3  -2   2 441.170 396.048   6
  -3  -2  -2 505.470 476.654   1
  -4   2  -2 213806. 7306.75   4
  -4  -2   2 227499. 7540.32   5
  -4  -2  -2 206938. 7411.23   1
  -4   2   2 203161. 6621.52   4
  -4  -2  -2 203812. 8233.91   2
  -4  -2   2 218287. 8575.62   2
  -5  -2  -2 779.353 585.430   1
  -5  -2  -2-124.070 565.460   2
  -5   2  -2 1149.23 578.641   4
  -5  -2   2 507.815 719.538   2
  -5   2   2-93.2531 429.375   4
  -5  -2   2-1122.03 656.601   5
  -6   2  -2 151243. 6722.11   4
  -6  -2  -2 134466. 6234.12   1
  -6   2   2 125925. 5617.69   4
  -6  -2  -2 132190. 7602.33   2
  -6  -2   2 133015. 7710.81   2
  -7   2  -2 74.4695 539.898   4
  -7   2   2 828.512 576.921   4
  -7  -2  -2-976.911 962.018   2
  -7  -2   2 153.227 834.803   2
  -8   2   2 130427. 8651.59   2
  -8   2  -2 146197. 9052.96   2
  -8   2  -2 166964. 8160.88   4
  -8  -2  -2 144743. 9492.62   2
  -8  -2   2 158649. 9979.70   2
  -9   2  -2-1261.09 1275.72   2
  -9  -2  -2-435.076 1133.93   2
  -9  -2   2 1326.16 1383.68   2
  -9   2   2 576.082 1029.68   2
   5   2   3 64219.4 2519.61   4
   4   2   3 1581.87 415.537   4
   4   2  -3 2312.31 411.805   1
   3  -2  -3 69463.9 2430.61   5
   3   2  -3 73471.6 2825.84   1
   3   2   3 73923.9 3318.06   4
   2  -2  -3 5820.84 421.264   5
   2   2  -3 5322.30 720.565   4
   1   2  -3 95115.8 3464.37   4
   1   2  -3 95588.8 3024.50   3
   1   2  -3 97202.3 4088.29   2
   1   2   3 86273.2 3120.96   5
   1   2   3 97219.2 4185.34   2
   0   2  -3 5533.23 810.175   4
   0  -2   3 3927.55 621.727   4
   0  -2  -3 3501.78 780.400   1
   0  -2   3 4497.02 486.067   3
   0   2   3 4626.01 432.910   5
   0   2   3 4587.33 841.084   1
  -1  -2   3 97420.2 4243.63   2
  -1  -2   3 93064.4 3786.29   6
  -1   2   3 89359.7 3938.41   1
  -1  -2   3 92649.2 3149.86   4
  -1  -2  -3 92616.4 3668.53   6
  -1  -2   3 96226.8 3116.68   3
  -1   2  -3 91450.8 3717.00   4
  -1   2   3 95239.2 3330.97   4
  -1  -2  -3 97626.6 4347.90   1
  -2  -2  -3 5839.13 1096.37   1
  -2   2  -3 6117.23 971.950   4
  -2   2   3 5991.27 790.730   4
  -2  -2  -3 7379.41 1164.26   2
  -2  -2   3 5832.66 1064.71   2
  -2   2   3 5150.72 892.565   1
  -2  -2  -3 5439.67 905.919   6
  -2  -2   3 7400.10 920.489   5
  -2  -2   3 5299.34 935.590   6
  -2  -2   3 5810.38 592.009   4
  -2  -2   3 6731.90 852.064   3
  -2   2   3 5062.63 512.404   3
  -3  -2   3 73941.1 3500.36   5
  -3  -2   3 66754.5 3776.57   6
  -3   2   3 72670.9 2582.05   3
  -3   2  -3 71890.0 3703.78   4
  -3   2   3 65666.3 3462.75   1
  -3   2   3 73945.2 3164.29   4
  -3  -2   3 71342.4 2036.42   4
  -3  -2  -3 76463.6 4248.81   2
  -3  -2   3 71809.0 4197.51   2
  -3  -2  -3 81796.9 4165.04   1
  -4   2  -3 858.275 504.908   4
  -4  -2  -3 1568.17 728.233   1
  -4   2   3 2180.52 613.052   4
  -4  -2  -3 2339.73 955.096   2
  -4  -2   3 951.665 711.473   2
  -4  -2   3 1757.03 657.346   5
  -5  -2   3 71751.5 4304.33   5
  -5   2   3 66256.0 3503.24   4
  -5  -2  -3 66037.1 4757.60   2
  -5   2  -3 65531.7 4132.81   4
  -5  -2  -3 63881.8 4124.00   1
  -5  -2   3 69830.8 4968.27   2
  -6   2  -3 1405.67 761.373   4
  -6  -2  -3 878.502 660.164   1
  -6   2   3 415.438 493.156   4
  -6  -2   3 1099.16 882.123   2
  -6  -2  -3 747.729 748.726   2
  -7  -2  -3 48855.9 3959.54   1
  -7  -2   3 57648.3 5356.76   2
  -7  -2  -3 50085.3 4931.83   2
  -7   2  -3 46711.2 4044.97   4
  -7   2   3 48403.1 3519.46   4
  -8   2  -3 1031.24 927.520   4
  -8  -2  -3 182.713 948.461   2
  -8  -2   3 1524.73 1248.87   2
  -8   2   3 3089.37 1452.89   2
  -8   2  -3 172.649 851.539   2
  -9   2  -3 39671.7 5028.63   2
  -9  -2  -3 33818.1 4795.80   2
  -9  -2   3 42019.1 5447.21   2
  -9   2   3 28214.4 4324.00   2
   5   2   4-455.584 288.374   4
   4   2   4 245193. 7219.61   4
   4   2  -4 224366. 5303.42   1
   3  -2  -4 9648.37 782.278   5
   3   2  -4 7834.93 826.909   1
   3   2   4 8188.55 1192.86   4
   1  -2  -4 1291.39 484.533   1
   1   2   4 2315.33 630.693   2
   1   2  -4 2064.19 580.264   2
   1   2  -4 2494.12 633.787   4
   0   2  -4 268303. 7873.51   4
   0  -2   4 273785. 6516.72   3
   0  -2   4 279365. 7577.55   4
   0  -2  -4 282559. 8627.68   1
  -1  -2   4 2130.35 579.335   6
  -1   2  -4 1330.44 569.419   4
  -1  -2   4 2543.45 517.770   4
  -1  -2   4 2030.06 443.765   3
  -1  -2  -4 2814.65 603.594   6
  -1  -2  -4 2525.21 725.852   1
  -2  -2  -4 524030. 13923.1   1
  -2   2   4 494327. 12813.8   1
  -2   2   4 502459. 11042.5   3
  -2  -2  -4 536917. 12875.2   6
  -2  -2   4 543371. 12394.8   5
  -2  -2   4 533617. 11730.9   4
  -2   2  -4 515173. 13420.5   4
  -2  -2   4 525512. 12149.6   3
  -2  -2  -4 546619. 13680.5   2
  -2  -2   4 520696. 13690.2   2
  -2  -2   4 524606. 12941.2   6
  -2   2   4 532015. 12176.2   4
  -2   2   4 499850. 10554.2   5
  -3   2  -4 6809.15 1180.48   4
  -3  -2  -4 8793.50 1385.80   2
  -3  -2   4 7092.13 1290.17   2
  -3   2   4 7741.17 1028.66   4
  -3  -2   4 8296.12 1095.00   3
  -3  -2   4 7724.25 1095.05   5
  -3   2   4 7935.98 811.945   3
  -3  -2  -4 8857.26 1422.49   1
  -3  -2   4 8742.21 795.716   4
  -4  -2   4 248944. 8052.68   5
  -4  -2  -4 251467. 8866.86   1
  -4  -2   4 235433. 5551.09   4
  -4   2  -4 250337. 8659.43   4
  -4   2   4 239498. 6613.92   3
  -4  -2  -4 244197. 9193.65   2
  -4  -2   4 248044. 9267.51   2
  -4   2   4 242265. 7247.61   4
  -4  -2   4 230442. 5062.01   4
  -5   2  -4 140.895 401.084   4
  -5  -2  -4-580.585 618.780   1
  -5  -2   4 578.316 615.111   2
  -5  -2   4-16.4342 370.922   5
  -5   2   4 345.585 366.463   4
  -5  -2  -4 888.158 701.006   2
  -6   2  -4 154878. 7410.46   4
  -6  -2   4 143248. 7101.00   5
  -6   2   4 142541. 5890.71   4
  -6  -2  -4 142246. 7870.52   2
  -6  -2   4 153392. 8325.41   2
  -6  -2  -4 146794. 7162.66   1
  -7   2  -4 2357.21 1138.46   4
  -7   2   4 762.895 552.553   4
  -7  -2  -4 721.783 692.460   1
  -7  -2  -4 125.626 768.684   2
  -7  -2   4 1603.01 1225.93   2
  -8   2  -4 140326. 8818.10   2
  -8   2  -4 142884. 8166.91   4
  -8   2  -4 138634. 7763.02   1
  -8   2   4 139340. 9001.18   2
  -8  -2  -4 154749. 9692.02   2
  -8  -2   4 142181. 9513.85   2
  -9   2  -4 2765.05 1472.81   2
  -9  -2  -4 702.139 1058.01   2
  -9   2   4-304.642 1009.75   2
   3   2  -5 94318.0 3307.36   1
   1   2   5 130979. 5090.38   2
   1  -2  -5 135953. 5650.51   1
   1   2  -5 131244. 5272.75   4
   1   2  -5 138580. 5020.19   2
   0   2  -5 11044.3 1400.56   4
   0  -2  -5 7856.82 1279.49   1
   0  -2   5 8941.68 858.928   3
  -1  -2   5 132153. 4567.03   6
  -1  -2   5 132627. 4811.57   4
  -1  -2   5 131372. 4202.83   3
  -1   2  -5 129277. 5378.00   4
  -1  -2  -5 126111. 4410.75   6
  -1  -2  -5 129220. 5590.20   1
  -2  -2   5 4067.85 780.788   4
  -2   2  -5 4379.88 1006.22   4
  -2  -2  -5 3428.31 884.147   2
  -2  -2   5 3748.47 966.219   2
  -2  -2  -5 2642.15 916.198   1
  -2   2   5 2844.91 382.637   5
  -2  -2  -5 3046.70 752.792   6
  -2  -2   5 3290.53 771.580   6
  -2  -2   5 2992.83 648.583   3
  -2  -2   5 4513.41 829.359   5
  -2   2   5 3589.45 589.651   3
  -3   2   5 95492.1 3273.75   5
  -3  -2   5 95174.8 4049.04   3
  -3   2   5 94967.6 3353.60   3
  -3  -2   5 98388.7 4193.43   5
  -3  -2   5 88885.5 3535.60   4
  -3   2  -5 92333.2 4827.56   4
  -3  -2  -5 94790.9 4850.33   2
  -3  -2   5 86304.8 4721.83   2
  -3   2   5 89285.4 3816.26   4
  -3  -2  -5 96794.4 5033.21   1
  -4  -2   5 1598.79 447.674   4
  -4   2  -5 1311.35 891.431   4
  -4  -2  -5 2356.33 910.735   1
  -4  -2   5 2364.05 772.468   5
  -4  -2  -5 2111.29 843.017   2
  -4  -2   5 1033.42 722.410   2
  -4   2   5 1818.08 510.702   3
  -4  -2   5 950.978 477.674   3
  -4   2   5 1457.76 556.438   4
  -5  -2   5 72231.4 4342.17   5
  -5   2   5 70160.5 3636.00   4
  -5   2  -5 63390.9 4469.50   4
  -5  -2  -5 70093.5 4906.99   2
  -5  -2   5 67396.9 2031.36   4
  -5  -2   5 70489.9 5032.97   2
  -5  -2  -5 74166.0 4819.25   1
  -6   2  -5 1195.37 957.184   4
  -6   2   5 964.521 508.608   4
  -6  -2   5 1127.53 872.442   2
  -6  -2  -5 531.872 644.920   1
  -6  -2  -5 1363.26 948.733   2
  -6  -2   5 2246.36 928.696   5
  -7   2  -5 47901.4 4254.70   1
  -7   2   5 52023.9 3562.41   4
  -7   2  -5 44351.1 4348.40   4
  -7  -2  -5 54788.1 5186.14   2
  -7  -2   5 52956.7 5260.78   2
  -7  -2  -5 53556.0 4526.31   1
  -8   2  -5-1275.91 927.732   4
  -8  -2  -5 1724.51 1208.98   2
  -8  -2   5 1037.00 1049.28   2
  -8   2   5 1100.63 1042.14   2
  -8   2  -5 1479.18 1202.20   2
  -8   2  -5 725.666 901.007   1
  -9  -2  -5 31948.8 4732.20   2
  -9  -2   5 29853.0 4706.68   2
  -9   2  -5 28630.6 4240.21   2
  -9   2   5 36468.8 4941.68   2
   2  -2  -6 292455. 9312.82   1
   1   2   6 11213.1 1354.43   2
   1  -2  -6 12611.0 1639.11   1
   1   2  -6 11960.2 1319.14   2
   1   2  -6 11559.8 1601.03   4
   0   2  -6 132351. 5667.03   4
   0  -2  -6 127530. 5629.33   1
   0   2   6 121896. 4800.85   2
   0   2  -6 122638. 4496.22   2
  -1   2  -6 10401.8 1602.35   4
  -1  -2   6 13886.0 1312.24   6
  -1  -2  -6 14547.0 1916.06   1
  -1  -2  -6 9481.15 1071.08   6
  -1  -2   6 13281.0 1264.44   3
  -2  -2  -6 278265. 8824.28   2
  -2  -2   6 293762. 8355.98   6
  -2  -2  -6 269565. 8037.61   6
  -2  -2   6 300230. 7979.85   3
  -2   2   6 290953. 6542.38   5
  -2   2  -6 283454. 9685.20   4
  -2  -2   6 277655. 9005.77   2
  -2  -2  -6 281244. 9647.34   1
  -3  -2   6 173.146 417.066   4
  -3   2  -6 30.9297 505.472   4
  -3  -2  -6 639.437 648.187   2
  -3  -2   6 612.270 748.121   2
  -3  -2  -6 219.309 628.702   1
  -3   2   6 430.913 387.466   4
  -3   2   6 398.443 298.963   3
  -3  -2   6 768.721 511.018   3
  -3   2   6 173.314 292.975   5
  -3  -2   6 461.700 539.612   5
  -4   2   6 171721. 5531.00   3
  -4  -2   6 179419. 6455.23   3
  -4   2   6 168820. 5634.75   5
  -4  -2   6 171266. 6638.77   5
  -4  -2   6 162186. 5586.05   4
  -4   2  -6 179853. 7843.48   4
  -4  -2  -6 174621. 7516.44   2
  -4  -2   6 167742. 7559.50   2
  -4   2   6 162477. 5862.29   4
  -4  -2  -6 175605. 7747.04   1
  -5   2  -6 9649.87 1865.05   4
  -5  -2  -6 7398.91 1598.34   1
  -5   2   6 7195.90 1146.20   4
  -5  -2  -6 4523.58 1267.52   2
  -5  -2   6 7384.98 1626.65   2
  -5   2   6 7693.76 1109.98   3
  -5  -2   6 8110.19 1473.66   5
  -5  -2   6 7048.64 654.218   4
  -6   2  -6 115168. 6975.57   4
  -6  -2   6 125931. 7504.82   2
  -6  -2   6 118636. 6409.00   5
  -6   2   6 117658. 5280.52   4
  -6  -2  -6 125034. 7025.35   1
  -6  -2  -6 120609. 7192.06   2
  -7   2  -6 243.169 901.247   4
  -7   2  -6 2405.92 1095.51   1
  -7   2   6 64.6727 431.664   4
  -7  -2  -6-833.000 819.692   1
  -7  -2  -6 1051.32 834.425   2
  -7  -2   6-723.329 924.296   2
  -7  -2   6 1798.73 1059.20   5
  -8   2   6 132331. 8771.90   2
  -8   2  -6 126332. 8318.06   2
  -8  -2   6 120391. 8735.07   2
  -8   2  -6 109376. 7310.99   1
  -8   2  -6 138832. 8554.45   4
  -8  -2  -6 122397. 8632.23   2
  -9  -2  -6-384.329 970.646   2
  -9   2  -6 899.171 1110.40   2
   2  -2  -7 821.686 568.907   1
   1   2  -7 57338.1 3828.94   4
   1  -2  -7 53327.7 3567.56   1
   1   2   7 55409.7 2942.03   2
   1   2  -7 52307.4 2813.00   2
   0  -2  -7 190.017 418.827   1
   0   2   7 551.177 363.839   2
   0   2  -7-40.5054 229.440   2
   0   2  -7 328.587 497.244   4
  -1  -2  -7 54644.1 2597.45   6
  -1  -2   7 53138.2 2649.32   6
  -1  -2   7 56896.9 2769.80   3
  -1   2  -7 51825.9 3740.26   4
  -1  -2  -7 54964.7 3803.24   1
  -2   2  -7 216.945 571.624   4
  -2  -2   7 466.483 416.809   2
  -2  -2  -7 1049.98 530.668   2
  -2  -2  -7 128.918 454.565   1
  -2  -2  -7 123.222 279.235   6
  -2  -2   7-14.2481 248.246   3
  -2  -2   7-22.5978 330.998   6
  -2   2   7 584.559 255.560   5
  -3   2   7 52298.4 2363.97   5
  -3  -2   7 52351.2 3618.95   2
  -3  -2   7 48573.5 2991.73   3
  -3   2   7 54491.4 2686.82   3
  -3  -2   7 52388.4 3182.59   5
  -3   2  -7 59779.7 4312.18   4
  -3  -2  -7 52813.3 3505.51   2
  -3  -2  -7 54723.0 4061.24   1
  -4   2  -7 236.549 496.062   4
  -4  -2  -7-393.086 493.865   2
  -4   2   7 46.8702 313.482   4
  -4   2   7 206.028 303.275   5
  -4  -2   7 574.312 549.769   2
  -4  -2   7-223.963 374.125   3
  -4  -2   7 475.389 447.748   5
  -4   2   7 623.348 396.601   3
  -4  -2  -7 509.831 713.276   1
  -5   2  -7 45256.3 4133.02   4
  -5   2   7 47628.6 2912.29   3
  -5  -2   7 45562.7 3491.97   5
  -5  -2   7 47490.9 3386.16   3
  -5  -2  -7 46048.6 3957.17   2
  -5  -2   7 46636.0 4093.00   2
  -5   2   7 42109.5 2884.85   4
  -5  -2  -7 43554.6 4027.10   1
  -6   2  -7 149.168 708.468   4
  -6  -2   7 583.779 764.370   5
  -6  -2  -7 1044.77 885.573   2
  -6  -2   7 68.6859 614.104   2
  -6  -2  -7-435.411 722.222   1
  -6   2   7 291.125 448.613   4
  -7   2  -7 38519.5 4342.80   4
  -7   2   7 36420.7 4182.78   2
  -7   2  -7 36516.9 3964.95   2
  -7  -2  -7 38690.2 4349.79   2
  -7  -2  -7 36703.4 4140.77   1
  -7   2  -7 41853.1 4252.80   1
  -7  -2   7 46007.1 4279.81   5
  -7  -2   7 42350.9 4688.41   2
  -7   2   7 33064.4 2879.86   4
  -8   2   7-1549.14 1189.46   2
  -8  -2  -7-1076.11 1049.85   1
  -8  -2   7 204.776 874.689   2
  -8   2  -7 807.975 947.111   1
  -8   2  -7 668.163 915.657   2
  -8   2  -7 172.428 889.964   4
   3   2  -8 3944.69 697.404   1
   2  -2  -8 309361. 10218.8   1
   1   2   8 710.322 382.041   2
   1   2  -8-53.7556 211.519   2
   1  -2  -8 360.879 467.826   1
   0   2   8 208173. 6460.31   2
   0   2  -8 205745. 8535.89   4
   0   2  -8 194931. 6053.36   2
   0  -2  -8 208099. 8072.57   1
  -1  -2  -8-371.658 519.472   1
  -1   2  -8 135.908 589.360   4
  -1  -2   8 284.020 256.542   6
  -1  -2  -8 781.889 342.506   6
  -1  -2   8-335.613 296.898   3
  -2  -2   8 296280. 8494.88   3
  -2  -2   8 301845. 8441.08   6
  -2   2  -8 288393. 10808.9   4
  -2  -2  -8 294180. 9054.09   2
  -2  -2   8 273541. 9049.10   2
  -2  -2  -8 288215. 10531.8   1
  -3  -2  -8 5489.40 1428.01   1
  -3  -2  -8 4414.33 1029.46   2
  -3  -2   8 3226.92 901.428   2
  -3  -2   8 4263.52 951.104   5
  -3  -2   8 3195.90 807.619   3
  -3   2   8 3023.36 558.828   5
  -3   2   8 3946.15 733.039   3
  -3   2  -8 3587.48 1216.66   4
  -4   2   8 180201. 6127.21   3
  -4  -2   8 173427. 6779.18   3
  -4  -2   8 180924. 7080.64   5
  -4   2  -8 183521. 8743.12   4
  -4  -2  -8 169115. 7519.63   2
  -4  -2   8 185359. 7996.83   2
  -4   2   8 187443. 5974.71   5
  -4   2   8 184808. 6688.49   4
  -4  -2  -8 196184. 8786.96   1
  -5   2  -8 2065.78 1072.83   4
  -5  -2  -8 1358.28 821.659   2
  -5  -2   8 1179.50 827.485   2
  -5   2   8 451.920 378.492   4
  -5   2   8 1584.28 636.249   5
  -5   2   8 446.756 410.285   3
  -5  -2   8 1553.80 755.712   3
  -5  -2   8 682.009 630.558   5
  -5  -2  -8 2080.42 1038.98   1
  -6   2   8 112704. 5282.63   3
  -6   2  -8 117145. 7105.05   1
  -6  -2   8 109043. 6286.95   5
  -6   2  -8 122490. 7682.01   4
  -6   2   8 107745. 5203.44   4
  -6  -2  -8 123736. 7282.63   2
  -6  -2   8 104966. 7003.23   2
  -6  -2  -8 121016. 7436.98   1
  -7  -2  -8-1188.68 973.324   1
  -7   2   8 7.58348 381.859   4
  -7   2  -8 970.516 883.912   1
  -7  -2  -8 1653.46 1068.26   2
  -7  -2   8 721.577 855.848   2
  -7  -2   8 1016.01 932.417   5
  -7   2   8-223.093 684.441   2
  -7   2  -8 3124.33 1246.44   2
  -7   2  -8 1172.31 1095.41   4
  -8   2   8 120953. 8458.56   2
  -8   2  -8 112836. 7840.47   2
  -8  -2   8 116090. 8620.40   2
  -8   2  -8 108113. 7746.65   1
  -8   2  -8 91225.8 7527.92   4
  -8  -2  -8 118201. 8428.40   2
  -8  -2   8 111356. 7664.89   5
  -8  -2  -8 105285. 7678.25   1
   3   2  -9 71105.7 3252.75   1
   3  -2  -9 79012.8 4629.60   1
   2  -2  -9 41.9555 411.467   1
   1  -2  -9 85899.9 5017.73   1
   1   2   9 91338.9 3776.49   2
   1   2  -9 94460.2 3754.19   2
   0  -2  -9 740.772 578.199   1
   0   2   9-25.7986 255.423   2
   0   2  -9 634.558 315.728   2
   0  -2  -9 161.497 196.835   6
   0   2  -9 503.740 689.223   4
  -1  -2  -9 88303.3 3318.62   6
  -1  -2   9 89738.8 3978.74   3
  -1   2  -9 76081.2 5359.01   4
  -1  -2  -9 88121.6 5328.13   1
  -1  -2   9 86706.7 3389.77   6
  -2  -2   9 28.6877 298.342   3
  -2  -2  -9 146.620 556.007   1
  -2   2  -9-1200.22 802.288   4
  -3   2   9 74501.5 3605.19   3
  -3  -2   9 76169.8 4017.08   3
  -3   2   9 78210.1 3217.16   5
  -3  -2   9 79072.8 4251.09   5
  -3   2  -9 72787.5 5373.88   4
  -3  -2  -9 70960.7 4189.61   2
  -3  -2   9 68430.1 4261.87   2
  -3  -2  -9 68298.7 4993.17   1
  -4  -2  -9 100.410 434.785   2
  -4  -2   9-839.295 696.639   2
  -4   2   9-383.054 397.575   4
  -4  -2  -9 532.797 780.462   1
  -4  -2   9 290.455 474.689   3
  -4   2   9 5.29176 252.948   5
  -4  -2   9-871.118 593.457   5
  -4   2   9-168.456 360.407   3
  -4   2  -9-295.298 703.064   4
  -5  -2   9 46970.7 3692.69   5
  -5   2   9 51563.5 3264.11   3
  -5  -2   9 50522.3 3661.58   3
  -5   2  -9 48685.0 4797.14   4
  -5   2   9 49677.2 3195.41   5
  -5  -2  -9 47352.5 4096.12   2
  -5  -2   9 48708.8 4267.81   2
  -5   2   9 47647.5 3334.43   4
  -5  -2  -9 49493.0 4596.90   1
  -6   2  -9-448.905 781.923   1
  -6   2   9 1445.58 658.671   3
  -6  -2  -9 212.642 562.847   2
  -6  -2  -9-1054.77 948.893   1
  -6  -2   9 798.714 752.028   2
  -6  -2   9-684.526 695.467   3
  -6  -2   9 765.845 715.811   5
  -6   2   9-144.422 508.052   4
  -6   2  -9-535.626 870.743   4
  -7   2   9 38783.9 4307.67   2
  -7   2  -9 35246.2 3941.14   2
  -7  -2  -9 33067.9 4124.63   2
  -7  -2   9 36105.2 4348.00   2
  -7  -2  -9 38935.7 4482.89   1
  -7  -2   9 40303.5 4113.71   5
  -7   2  -9 37611.8 4362.41   1
  -7   2   9 41082.6 3306.84   4
  -7   2  -9 33954.7 4457.53   4
  -8   2  -9-2225.24 1352.37   1
  -8  -2  -9-254.707 882.697   1
  -8  -2  -9 2555.76 1341.07   2
  -8  -2   9-2195.14 1348.73   2
  -8   2   9-642.219 896.415   2
  -8  -2   9 50.0637 770.626   5
  -8   2  -9-2898.00 1356.23   2
  -8   2  -9 432.235 945.381   4
   3  -2 -10 7649.98 1502.10   1
   3   2 -10 10813.0 1296.12   1
   2   2 -10 228887. 7607.60   1
   2  -2 -10 229371. 9060.94   1
   1   2  10 541.020 312.212   2
   1   2 -10 787.077 374.819   2
   0  -2 -10 172965. 4844.64   6
   0   2  10 172215. 5381.85   2
   0   2 -10 179459. 5338.71   2
   0  -2 -10 180103. 7946.60   1
   0  -2  10 177898. 5040.64   6
  -1  -2 -10 964.904 766.558   1
  -1  -2  10 662.033 318.257   6
  -1  -2 -10 738.067 294.415   6
  -1  -2  10 393.171 426.327   3
  -1   2 -10 908.080 666.427   4
  -2   2 -10 220798. 10289.8   4
  -2  -2 -10 239871. 9903.98   1
  -2  -2  10 236720. 7785.41   3
  -3  -2 -10 6695.45 1283.68   2
  -3  -2  10 7400.74 1392.69   2
  -3  -2 -10 8474.03 1880.60   1
  -3  -2  10 7659.88 1280.71   3
  -3   2  10 10658.6 1159.91   5
  -3  -2  10 8232.38 1406.72   5
  -3   2  10 8925.94 1250.81   3
  -3   2 -10 8270.27 1995.21   4
  -4   2  10 167319. 6361.75   3
  -4   2 -10 169068. 9227.55   4
  -4  -2  10 165299. 6860.76   3
  -4   2  10 172831. 5943.66   5
  -4  -2 -10 165457. 7381.86   2
  -4  -2  10 177615. 7265.17   5
  -4  -2  10 167277. 7668.50   2
  -4  -2 -10 162789. 8701.81   1
  -5  -2 -10 201.446 886.793   1
  -5  -2  10-70.5985 585.714   3
  -5   2  10 300.217 375.177   5
  -5  -2 -10 475.791 758.716   2
  -5  -2  10 565.683 567.592   2
  -5   2  10 910.213 554.684   4
  -5   2 -10 191.052 895.990   1
  -5   2  10-117.340 380.509   3
  -5  -2  10-438.388 647.814   5
  -5   2 -10 1454.09 1054.80   4
  -6  -2  10 118293. 6384.06   3
  -6   2  10 111878. 7053.40   2
  -6   2 -10 123204. 6872.35   2
  -6   2 -10 126732. 7967.51   1
  -6   2  10 117546. 5744.35   3
  -6  -2  10 116234. 6657.77   5
  -6   2 -10 115669. 8221.15   4
  -6  -2 -10 128473. 7517.32   2
  -6  -2  10 118271. 7425.85   2
  -6   2  10 108311. 5559.07   4
  -6  -2 -10 104654. 7484.24   1
  -7   2  10 1113.09 905.059   2
  -7  -2 -10 3704.29 1439.17   2
  -7  -2  10 2662.21 1333.15   2
  -7   2  10 858.369 647.596   4
  -7  -2 -10 3999.04 1653.40   1
  -7   2 -10 3222.08 1301.84   2
  -7  -2  10 1702.82 1010.04   5
  -7   2 -10 2922.05 1455.02   1
  -7   2 -10-125.292 890.245   4
  -8   2 -10 97539.9 7689.83   1
  -8  -2  10 111455. 7685.30   5
  -8   2 -10 94208.5 8119.79   4
  -8  -2 -10 103018. 7733.33   2
  -8  -2  10 95962.8 7828.83   2
  -8  -2 -10 95286.5 7775.77   1
  -8   2  10 87321.9 7386.54   2
  -8   2 -10 101390. 7436.14   2
   3   2 -11 31616.9 2447.53   1
   3  -2 -11 31013.6 3131.64   1
   2   2 -11 559.253 469.121   1
   2  -2 -11 1787.91 793.680   1
   1   2 -11 29475.5 2696.44   1
   1  -2 -11 24793.2 2941.81   1
   0  -2 -11-253.462 527.750   1
   0   2 -11-37.5835 154.252   2
   0  -2 -11 24.4570 128.101   6
   0  -2  11 767.683 283.153   6
  -1  -2  11 29671.4 2437.29   3
  -1  -2 -11 35250.3 3542.60   1
  -1   2 -11 26323.0 3479.64   4
  -2  -2 -11-6.93650 762.179   1
  -2  -2  11 275.303 439.378   3
  -2   2 -11 637.609 800.208   4
  -3  -2  11 31088.2 2791.54   2
  -3   2  11 32767.3 2212.40   5
  -3  -2  11 34756.8 2853.96   3
  -3   2  11 29298.5 2410.58   3
  -3  -2  11 26618.9 2637.31   5
  -3  -2 -11 28592.0 2579.51   2
  -3  -2 -11 32281.1 3753.15   1
  -3   2 -11 31293.3 3886.13   4
  -4  -2 -11 504.133 546.515   2
  -4  -2  11 1161.94 685.001   2
  -4   2  11-201.823 449.266   3
  -4  -2 -11-54.6927 728.887   1
  -4  -2  11 348.843 624.214   3
  -4   2  11 390.749 457.513   5
  -4  -2  11-279.659 611.685   5
  -4   2 -11 792.067 1039.65   4
  -4   2 -11 1088.78 969.273   1
  -5  -2  11 27560.1 3239.16   2
  -5   2  11 30416.3 2681.09   3
  -5  -2 -11 26490.1 3690.32   1
  -5  -2  11 34242.5 3337.61   5
  -5   2 -11 27275.2 3681.81   1
  -5  -2 -11 29628.0 3193.36   2
  -5   2  11 30691.9 2873.76   4
  -5  -2  11 25654.6 2817.02   3
  -5   2 -11 30372.5 4226.23   4
  -6  -2  11-88.0967 585.489   3
  -6   2  11 543.363 738.421   2
  -6  -2 -11-12.6903 659.717   2
  -6   2  11 529.065 553.754   4
  -6  -2 -11 1039.67 1136.38   1
  -6   2  11 579.394 647.011   3
  -6   2 -11 515.101 674.031   2
  -6  -2  11-1546.04 935.220   5
  -6  -2  11-19.3564 607.258   2
  -6   2 -11-1036.85 1011.07   1
  -6   2 -11 239.229 925.627   4
  -7   2 -11 29042.4 3628.06   2
  -7  -2 -11 29189.7 3827.32   2
  -7  -2  11 25561.6 3780.64   2
  -7   2  11 24893.5 2697.30   4
  -7  -2 -11 22154.9 3699.02   1
  -7   2 -11 24432.0 3718.22   1
  -7   2  11 25280.3 3581.58   2
  -7   2  11 26728.6 2859.45   3
  -7  -2  11 31565.4 3769.81   5
  -7   2 -11 29822.9 4558.11   4
  -8  -2 -11 2872.21 1605.04   1
  -8  -2  11 632.192 951.069   5
  -8   2 -11-1067.87 1176.80   1
  -8   2 -11 1599.05 1438.74   4
   3   2 -12-955.713 550.033   1
   3  -2 -12-957.485 669.732   1
   2   2 -12 119765. 5632.07   1
   2  -2 -12 110424. 6344.67   1
   1   2 -12 3569.64 1090.53   1
   1  -2 -12 3186.79 1187.41   1
   0   2 -12 103192. 5732.65   1
   0  -2 -12 89532.2 5873.29   1
  -1  -2 -12 1807.95 993.217   1
  -1  -2  12 4515.96 1056.37   3
  -1   2 -12 6211.91 1488.14   1
  -2   2 -12 98142.7 6217.59   1
  -2  -2  12 122805. 5556.09   3
  -2   2 -12 120598. 7823.02   4
  -2  -2 -12 109534. 6883.74   1
  -3  -2 -12 874.863 854.066   1
  -3   2 -12-448.204 782.961   1
  -3   2  12 270.968 324.154   5
  -3  -2  12-61.9849 565.619   5
  -3  -2  12 64.2916 493.702   3
  -3   2  12 312.069 355.920   3
  -3   2 -12 596.582 861.674   4
  -4  -2  12 88239.7 5339.42   2
  -4   2 -12 88922.1 6460.03   1
  -4  -2  12 88684.8 5097.65   3
  -4   2  12 96547.0 4905.13   3
  -4  -2  12 89388.2 5264.64   5
  -4   2 -12 95143.8 7383.54   4
  -4  -2 -12 82694.3 6424.33   1
  -5   2 -12 6025.34 1870.91   1
  -5   2  12 4985.52 1254.19   4
  -5  -2 -12 4941.30 1658.70   1
  -5  -2  12 3422.44 1133.76   3
  -5   2  12 4748.59 1134.37   3
  -5  -2  12 5364.39 1408.64   5
  -5   2 -12 5483.07 1953.19   4
  -6  -2  12 61028.9 4766.69   3
  -6   2 -12 73031.1 6398.58   1
  -6   2  12 76640.3 4785.03   3
  -6  -2  12 72222.2 5408.18   5
  -6   2 -12 63482.8 6600.07   4
  -6   2  12 64110.0 4492.82   4
  -6  -2 -12 65070.3 6217.33   1
  -7   2 -12 1017.41 1144.84   1
  -7  -2  12-2288.50 1225.04   5
  -7  -2 -12-1645.09 1448.98   1
  -7   2  12-665.596 702.226   3
  -7   2 -12 1340.27 1169.72   4
  -8   2 -12 46262.3 6082.53   4
   3  -2 -13 83328.4 5555.93   1
   2  -2 -13 1577.36 907.514   1
   2   2 -13-997.661 614.828   1
   1   2 -13 90631.9 5398.26   1
   1  -2 -13 99589.4 6273.30   1
   0  -2 -13 938.577 1006.59   1
   0   2 -13 254.668 571.453   1
  -1   2 -13 87343.4 5773.62   1
  -1  -2  13 84577.8 4630.78   3
  -1  -2 -13 84268.5 6019.48   1
  -2  -2 -13 326.477 716.115   1
  -2   2 -13-386.121 863.228   1
  -2  -2  13 485.571 508.610   3
  -3  -2  13 78198.3 4716.27   3
  -3   2 -13 79782.5 6029.63   1
  -3   2  13 83608.4 4076.38   5
  -3   2  13 78276.8 4455.20   3
  -3   2 -13 81980.0 6816.28   4
  -3  -2 -13 75624.0 6096.86   1
  -4   2 -13 96.7664 852.379   1
  -4  -2  13 202.319 592.510   5
  -4  -2 -13 247.071 1008.68   1
  -4   2  13-736.791 568.863   3
  -4   2 -13-590.958 951.359   4
  -4  -2  13-261.078 721.192   3
  -5   2 -13 50229.6 5733.27   4
  -5  -2  13 51102.6 4302.08   5
  -5  -2  13 50419.3 4128.48   3
  -5   2  13 54716.7 3947.43   3
  -5   2 -13 55327.6 5501.36   1
  -5   2  13 46219.5 3865.50   4
  -5  -2 -13 48969.5 5303.76   1
  -6   2  13 781.087 630.788   4
  -6   2 -13-3113.50 1621.87   1
  -6  -2 -13 390.112 1084.14   1
  -6  -2  13-838.886 800.668   3
  -6   2  13-1901.62 894.210   3
  -6  -2  13-1949.32 1118.26   5
  -6   2 -13 502.974 1343.26   4
  -7   2  13 43773.0 3957.72   3
  -7  -2  13 45174.8 4695.92   5
  -7  -2 -13 33303.7 4818.15   1
  -7   2 -13 42960.4 5726.64   4
   3  -2 -14 1912.95 977.762   1
   2   2 -14 127228. 6456.42   1
   2  -2 -14 130043. 7422.89   1
   1   2 -14-4.01762 665.808   1
   1  -2 -14 1591.71 996.175   1
   0   2 -14 127643. 7099.23   1
   0  -2 -14 134688. 7809.33   1
  -1  -2 -14 552.247 886.686   1
  -1  -2  14 347.222 539.109   3
  -1   2 -14-226.760 652.201   1
  -2   2 -14 130489. 7759.93   1
  -2  -2  14 121959. 6055.03   3
  -2  -2 -14 124723. 7930.66   1
  -3  -2 -14 2019.84 1219.32   1
  -3  -2  14 3878.72 1066.47   3
  -3   2  14 1520.74 633.837   3
  -3   2 -14 275.352 927.903   1
  -4   2 -14 104720. 7605.47   1
  -4  -2  14 110463. 6138.83   3
  -4   2  14 110588. 5751.61   3
  -4  -2  14 99610.8 6023.52   5
  -4  -2 -14 104916. 7743.76   1
  -5   2 -14 1157.95 1042.97   1
  -5   2  14 1566.53 931.383   3
  -5   2  14 812.566 751.317   4
  -5  -2 -14-111.160 861.308   1
  -5  -2  14 2842.48 1170.52   3
  -5  -2  14 2247.45 1109.59   5
  -6   2 -14 84289.8 7360.94   1
  -6   2  14 86248.9 5457.20   3
  -6  -2  14 87988.5 5996.97   3
  -6  -2  14 82659.8 6116.15   5
  -6   2  14 82160.3 5500.94   4
  -6  -2 -14 68487.0 6826.39   1
  -7   2  14 363.336 601.553   3
   2   2 -15 129.242 542.585   1
   2  -2 -15-1502.14 978.300   1
   1   2 -15 14782.5 2306.52   1
   1  -2 -15 15684.0 2716.94   1
   0   2 -15-780.503 781.187   1
   0  -2 -15-1060.09 902.341   1
  -1  -2 -15 16793.3 2923.78   1
  -1   2 -15 13749.3 2464.49   1
  -1  -2  15 17089.6 2191.72   3
  -2  -2 -15 637.067 1053.99   1
  -2   2 -15-457.060 855.460   1
  -2  -2  15-85.4698 593.642   3
  -3  -2 -15 18718.4 3242.96   1
  -3   2 -15 23705.8 3574.11   1
  -3  -2  15 24169.1 2710.67   3
  -3   2  15 18107.7 2257.72   3
  -4   2 -15 129.625 1008.48   1
  -4  -2 -15 10.9749 933.349   1
  -4  -2  15-241.292 641.618   3
  -4  -2  15-19.6435 652.433   5
  -4   2  15 529.362 641.527   3
  -5   2 -15 17146.9 3331.87   1
  -5  -2 -15 11513.6 2871.34   1
  -5  -2  15 14651.8 2412.21   5
  -5   2  15 15356.5 2254.38   3
  -5  -2  15 13570.7 2265.72   3
  -5   2  15 15953.7 2461.79   4
  -6   2  15 516.100 676.593   4
  -6   2  15 63.4116 571.766   3
  -6  -2  15 1352.41 1018.03   5
   2  -2 -16 78286.8 6083.37   1
   1   2 -16-1624.80 962.066   1
   1  -2 -16 571.614 865.215   1
   0   2 -16 83287.5 6107.20   1
   0  -2 -16 109498. 7451.17   1
  -1  -2 -16 1491.34 1079.77   1
  -1  -2  16 1074.27 834.868   3
  -1   2 -16 2430.65 1231.60   1
  -2   2 -16 64829.7 5866.73   1
  -2  -2  16 77097.6 5037.22   3
  -2  -2 -16 80272.5 6717.64   1
  -3   2 -16-1465.62 1294.12   1
  -3  -2 -16 1809.46 1255.19   1
  -3  -2  16 1016.06 813.817   3
  -3   2  16 1036.19 793.073   3
  -4   2 -16 79154.0 7045.53   1
  -4  -2  16 80203.6 5650.91   5
  -4  -2  16 71001.6 5294.00   3
  -4   2  16 85763.9 5350.84   3
  -4  -2 -16 82708.3 7315.64   1
  -5   2  16 1702.39 942.928   3
  -5  -2  16 1381.62 956.673   5
  -6   2  16 66641.3 5123.86   3
  -6   2  16 61653.8 5069.77   4
   2  -2 -17 2109.04 1274.52   1
   1   2 -17 28891.1 3491.64   1
   1  -2 -17 28038.8 3806.59   1
   0  -2 -17-1457.18 1036.01   1
   0  -2  17 745.463 742.983   3
   0   2 -17 439.319 737.670   1
  -1  -2 -17 28782.0 4064.32   1
  -1  -2  17 33136.6 3351.83   3
  -1   2 -17 29431.1 3932.15   1
  -2  -2 -17-1067.83 1188.43   1
  -2  -2  17 917.332 759.991   3
  -2   2  17 111.481 576.622   3
  -2   2 -17 1621.61 944.219   1
  -3  -2 -17 29684.6 4405.72   1
  -3  -2  17 33634.8 3511.79   3
  -3   2  17 29188.6 3185.03   3
  -3   2 -17 31577.7 4406.37   1
  -4  -2 -17 1234.84 1513.02   1
  -4   2  17-1857.29 994.852   3
  -4   2 -17-1067.83 1234.62   1
  -4  -2  17 919.263 1057.04   3
  -4  -2  17-1199.29 961.236   5
  -5   2  17 19908.7 2754.09   3
  -5  -2  17 15645.7 2685.67   5
   1  -2 -18-1176.96 1103.41   1
   0   2 -18 85256.8 6587.00   1
   0  -2  18 77866.3 5418.96   3
   0  -2 -18 77610.7 6795.57   1
  -1  -2 -18-207.731 974.719   1
  -1   2 -18-380.753 951.947   1
  -1  -2  18 774.000 822.756   3
  -2   2 -18 63757.8 6235.85   1
  -2  -2  18 76669.4 5413.68   3
  -2   2  18 68949.1 5047.98   3
  -2  -2 -18 60758.9 6299.76   1
  -3  -2 -18-1323.96 1369.98   1
  -3   2 -18 348.364 839.834   1
  -3  -2  18 80.1248 651.782   5
  -3   2  18 972.773 628.986   3
  -4   2  18 59617.9 4798.83   3
  -4  -2  18 65448.9 5395.06   5
   1  -2 -19 26754.4 3966.40   1
   0   2 -19-1125.92 1179.44   1
   0  -2  19 227.057 699.006   3
   0  -2 -19 57.2848 893.694   1
  -1  -2 -19 27603.4 4199.57   1
  -1   2 -19 27182.0 3926.77   1
  -2   2 -19 1069.83 1036.08   1
   0  -2 -20 36743.0 4967.48   1
   0   2 -20 39762.2 4747.86   1
  -1   2 -20-2709.91 1472.51   1
   4  -3   0 73495.7 2407.75   3
   3   3   0 47.5938 68.7571   4
   3  -3   0-40.6719 102.624   3
   2   3   0 96233.1 2880.57   4
   1   3   0-298.066 226.933   4
   0   3   0 142071. 3707.60   3
   0  -3   0 153554. 4036.26   5
   0   3   0 156867. 4673.47   4
  -1   3   0-306.979 367.726   4
  -1  -3   0 19.6088 159.270   4
  -1  -3   0 254.510 213.627   5
  -2  -3   0 107843. 4915.56   6
  -2  -3   0 96817.5 3911.88   5
  -2   3   0 100829. 4077.13   4
  -2  -3   0 100221. 5311.07   2
  -3  -3   0 585.316 603.266   2
  -3   3   0-1196.67 549.449   4
  -3  -3   0 167.443 393.031   1
  -3  -3   0 159.277 467.718   5
  -3  -3   0 711.680 591.963   6
  -4  -3   0 72606.3 4238.57   5
  -4  -3   0 75816.9 4255.18   1
  -4  -3   0 71911.1 4958.52   2
  -4   3   0 77220.8 4052.60   4
  -4  -3   0 73743.0 4653.09   6
  -5   3   0-88.1932 460.196   4
  -5  -3   0-1229.84 865.038   2
  -5  -3   0 324.674 580.720   1
  -6  -3   0 54999.3 3847.02   1
  -6   3   0 57490.0 3990.48   4
  -6  -3   0 57111.0 5156.62   2
  -7   3   0-84.7958 612.898   4
  -7  -3   0-308.244 1071.63   2
  -8   3   0 29434.8 3327.43   4
  -8  -3   0 31188.5 4538.57   2
   4  -3   1 1051.18 267.565   3
   4  -3  -1 567.736 235.940   3
   3  -3   1 468148. 9282.59   3
   3   3   1 458955. 9483.63   4
   2   3  -1 3282.01 459.133   4
   2   3   1 3309.55 434.893   4
   1   3  -1 314701. 7522.29   3
   1   3   1 315510. 7583.18   5
   1   3   1 325943. 7522.07   4
   1   3  -1 316495. 7712.65   4
   0   3  -1 2395.74 519.758   4
   0   3   1 2146.12 468.242   4
   0  -3  -1 2233.99 362.707   5
   0   3  -1 1884.83 291.874   3
  -1   3   1 310320. 8255.18   4
  -1  -3  -1 323434. 7898.64   5
  -1  -3   1 318446. 7903.48   5
  -1   3  -1 319668. 8516.06   4
  -1  -3   1 326913. 7492.29   4
  -2  -3  -1 3037.11 956.201   2
  -2  -3   1 2718.16 964.849   2
  -2  -3   1 4909.79 1005.49   6
  -2   3  -1 3024.07 689.233   4
  -2   3   1 3067.54 684.574   4
  -2  -3   1 2813.79 366.416   4
  -2  -3  -1 2476.17 758.503   1
  -2  -3  -1 3969.64 967.140   6
  -2  -3  -1 3661.25 725.218   5
  -2  -3   1 2377.48 597.619   5
  -3  -3   1 476555. 13375.6   6
  -3  -3  -1 464995. 13258.9   6
  -3  -3  -1 478685. 12503.4   5
  -3  -3   1 471175. 12261.9   5
  -3  -3   1 470346. 14238.9   2
  -3  -3  -1 462640. 13150.3   1
  -3   3  -1 461723. 12286.7   4
  -3  -3  -1 444988. 13982.2   2
  -3   3   1 461865. 11901.3   4
  -4   3  -1 1141.94 585.497   4
  -4   3   1 1042.76 470.948   4
  -4  -3  -1 2359.26 959.881   2
  -4  -3   1 1048.85 742.094   2
  -4  -3  -1 1452.41 784.286   6
  -4  -3  -1 2193.72 738.905   1
  -4  -3   1 1140.00 572.182   5
  -4  -3   1 1371.59 806.736   6
  -5  -3   1 149238. 6833.57   5
  -5  -3  -1 140510. 6432.96   1
  -5   3  -1 139440. 6309.26   4
  -5   3   1 145395. 6135.87   4
  -5  -3  -1 130331. 7415.89   2
  -5  -3   1 141991. 7774.64   2
  -6   3  -1 356.248 568.898   4
  -6   3   1 1144.87 645.248   4
  -6  -3  -1 364.552 765.139   2
  -6  -3   1 1244.36 986.410   2
  -6  -3  -1-168.273 433.095   1
  -7  -3  -1 163934. 9744.81   2
  -7   3   1 171293. 7786.22   4
  -7   3  -1 176326. 8113.94   4
  -7  -3   1 169416. 9913.66   2
  -8   3  -1-162.113 985.784   4
  -8   3   1-248.861 578.763   4
  -8  -3  -1-608.706 1202.46   2
  -8  -3   1-1170.08 1254.23   2
   4   3   2 67596.8 2398.76   4
   4  -3  -2 59777.6 2689.15   5
   4   3   2 64449.8 1905.70   4
   3   3   2 114.952 149.404   4
   3  -3  -2 147.446 175.533   5
   3   3  -2-17.0432 131.149   4
   2  -3  -2 60306.4 1790.44   5
   2   3  -2 67584.6 2563.07   4
   2   3   2 69482.9 2376.79   4
   1   3  -2 106.771 221.677   4
   1   3   2-6.53898 194.052   4
   1   3  -2-135.240 160.664   3
   1   3   2-17.8143 192.997   5
   1  -3   2 33.7145 90.8315   3
   0  -3   2 90240.6 2795.64   3
   0  -3  -2 91257.8 2719.12   5
   0   3  -2 92178.0 2666.52   3
   0   3  -2 88682.1 3576.53   4
   0   3   2 95302.7 3336.59   4
  -1   3  -2-0.82117 307.657   4
  -1  -3   2-206.359 177.435   4
  -1  -3  -2-27.9907 410.339   1
  -1   3   2 181.275 284.547   4
  -1  -3  -2-10.3207 264.066   5
  -1  -3   2 216.443 310.633   5
  -2  -3   2 66346.8 3760.88   6
  -2  -3  -2 66620.2 3744.75   6
  -2   3   2 61877.5 1717.23   3
  -2  -3   2 68750.5 3146.07   5
  -2  -3  -2 68776.9 4037.27   1
  -2  -3  -2 68151.4 4263.55   2
  -2  -3   2 71283.0 4360.63   2
  -2  -3   2 65463.6 2151.93   4
  -2   3  -2 61455.3 3277.58   4
  -2   3   2 66074.4 3083.53   4
  -3   3  -2 446.451 434.597   4
  -3  -3  -2 1550.33 872.733   2
  -3  -3   2 642.416 742.144   2
  -3   3   2 236.971 312.499   4
  -3  -3  -2 633.904 583.162   6
  -3  -3   2 871.554 747.229   6
  -3  -3   2 500.894 467.301   5
  -3  -3  -2 1030.94 588.475   1
  -4  -3   2 69878.0 3991.91   5
  -4  -3  -2 69992.6 4309.00   1
  -4  -3  -2 66985.9 4385.02   6
  -4   3  -2 65984.3 4058.94   4
  -4  -3  -2 67782.5 4780.96   2
  -4  -3   2 68403.5 4851.33   2
  -4   3   2 65942.1 3598.73   4
  -4  -3   2 71878.8 4533.56   6
  -5  -3  -2 137.382 448.585   1
  -5   3  -2-48.9635 464.973   4
  -5   3   2-279.300 545.603   4
  -5  -3  -2-250.034 658.160   2
  -5  -3   2-497.978 658.450   2
  -5  -3   2 937.731 777.948   5
  -6  -3  -2 69437.0 4694.93   1
  -6   3  -2 63198.9 4474.82   4
  -6  -3  -2 68167.4 5611.15   2
  -6  -3   2 69675.3 5728.73   2
  -6   3   2 66234.6 4176.90   4
  -7   3  -2 895.514 785.741   4
  -7   3   2 659.523 601.483   4
  -7  -3  -2 574.392 937.276   2
  -7  -3   2 1253.95 1091.76   2
  -8   3  -2 47029.4 4369.94   4
  -8  -3  -2 38121.7 4939.90   2
  -8  -3   2 41925.8 5194.55   2
  -8   3   2 36169.6 3560.90   4
   4   3  -3 1749.03 564.060   1
   4  -3  -3 2654.72 475.293   5
   4   3   3 1328.51 422.571   4
   3  -3  -3 319182. 6991.76   5
   3   3  -3 336866. 9303.24   1
   2   3  -3 1227.70 402.690   4
   1  -3   3 186115. 4393.89   3
   1   3  -3 186388. 5722.44   4
   1   3   3 179589. 5088.37   5
   1   3   3 192941. 5315.21   4
   0  -3  -3 10133.5 1587.80   1
   0   3  -3 7657.07 1018.16   4
   0  -3   3 9758.69 811.451   3
   0   3   3 8930.36 614.031   5
   0   3   3 10940.8 1053.84   4
  -1  -3   3 192147. 5425.10   3
  -1  -3  -3 185688. 7337.69   1
  -1   3  -3 196196. 6402.67   4
  -1  -3   3 193073. 5449.95   4
  -1   3   3 185786. 5694.44   4
  -2  -3  -3 1207.02 743.699   2
  -2  -3   3 584.732 502.694   2
  -2   3  -3 989.590 533.467   4
  -2  -3   3 1592.18 340.656   4
  -2   3   3 1344.13 459.776   4
  -2  -3   3 1378.59 616.415   6
  -2  -3  -3 775.140 529.126   6
  -2  -3   3 978.828 429.735   5
  -2  -3  -3 1637.72 736.884   1
  -2   3   3 1311.36 262.315   3
  -3   3   3 319011. 7169.43   3
  -3  -3   3 308790. 10164.9   6
  -3  -3   3 338256. 9425.60   5
  -3  -3  -3 318311. 10530.3   1
  -3   3  -3 308555. 9885.72   4
  -3  -3  -3 321108. 10994.3   2
  -3  -3   3 320689. 11185.3   2
  -3  -3  -3 314993. 10158.8   6
  -3  -3   3 311666. 6671.68   4
  -3   3   3 325065. 9020.71   4
  -4   3  -3 1848.83 738.545   4
  -4  -3   3 2235.47 808.561   5
  -4  -3  -3 3294.09 1065.84   2
  -4   3   3 1650.54 570.420   4
  -4  -3   3 2128.21 1031.23   2
  -4  -3  -3 1751.40 953.733   1
  -5   3  -3 106070. 5704.37   4
  -5  -3  -3 99650.9 5667.16   1
  -5   3   3 108412. 5026.16   4
  -5  -3  -3 96832.6 6277.76   2
  -5  -3   3 95044.0 6385.61   2
  -5  -3   3 112146. 5739.57   5
  -6   3  -3 606.827 694.951   4
  -6   3   3 602.384 492.083   4
  -6  -3  -3-413.488 719.516   2
  -6  -3   3 1343.14 1125.31   2
  -6  -3   3 1683.02 1015.93   5
  -6  -3  -3 1350.34 830.064   1
  -7  -3  -3 138451. 8854.21   2
  -7   3  -3 140059. 7560.84   4
  -7  -3   3 122578. 8505.68   2
  -7   3   3 143730. 6839.18   4
  -8   3  -3-807.973 872.857   4
  -8   3   3-1663.33 869.439   4
  -8  -3   3 175.650 913.237   2
   4  -3  -4 67985.9 2495.71   5
   4   3   4 68392.2 3549.46   4
   4   3  -4 68186.4 3217.36   1
   3   3  -4 2785.23 753.754   1
   2   3  -4 83878.0 3721.43   4
   1   3  -4 4345.20 850.902   4
   1   3   4 3892.39 600.632   5
   1  -3   4 3476.90 460.280   3
   0   3   4 114221. 3132.30   5
   0  -3   4 120208. 3657.21   3
   0   3  -4 116418. 4707.22   4
   0   3   4 125072. 4272.52   4
  -1   3  -4 3526.24 830.923   4
  -1   3   4 5412.29 857.463   4
  -1  -3   4 3207.09 602.214   3
  -1  -3  -4 2597.63 912.664   1
  -2  -3  -4 90811.3 4385.93   6
  -2  -3   4 81196.7 4853.62   2
  -2  -3   4 87331.8 4390.35   6
  -2  -3   4 87102.9 3659.23   3
  -2  -3  -4 85591.8 4822.74   2
  -2   3   4 84481.0 2699.07   3
  -2  -3   4 88188.7 3843.27   5
  -2  -3  -4 87686.0 4931.82   1
  -2   3  -4 88625.3 4404.64   4
  -2  -3   4 90248.1 3214.47   4
  -2   3   4 95955.3 3884.48   4
  -3   3  -4 819.357 525.853   4
  -3  -3  -4 3142.25 1039.50   2
  -3  -3   4 2056.77 1021.89   2
  -3  -3   4 1861.61 345.594   4
  -3   3   4 1798.15 625.495   4
  -3  -3   4 2129.54 776.548   6
  -3  -3  -4 1476.01 723.852   6
  -3   3   4 1818.41 380.501   3
  -3  -3   4 2372.04 703.979   5
  -3  -3  -4 1918.69 872.629   1
  -4  -3  -4 60792.8 4338.88   1
  -4  -3   4 65266.1 3894.05   5
  -4   3   4 63581.7 2673.23   3
  -4   3  -4 76295.0 4564.28   4
  -4  -3  -4 74314.1 4999.20   2
  -4  -3   4 67837.3 4833.27   2
  -4   3   4 63968.4 3529.90   4
  -5   3  -4 1073.33 751.897   4
  -5   3   4 1202.66 608.719   4
  -5  -3  -4 671.585 705.801   2
  -5  -3   4 163.407 604.070   2
  -5  -3   4 1462.69 854.525   5
  -5  -3  -4 1145.08 774.074   1
  -6  -3   4 54119.5 4353.47   5
  -6   3  -4 57544.2 4518.50   4
  -6  -3  -4 55565.2 4472.91   1
  -6   3   4 48214.7 3526.81   4
  -6  -3  -4 51965.7 4891.40   2
  -6  -3   4 55169.8 5095.79   2
  -7   3  -4 1102.89 814.647   4
  -7   3   4 1123.99 731.359   4
  -7  -3  -4-194.231 952.339   2
  -7  -3   4 606.517 796.821   2
  -7  -3  -4 194.010 601.664   1
  -8   3  -4 31954.5 3888.96   4
  -8  -3  -4 32925.7 4667.76   2
  -8  -3   4 34789.4 4717.39   2
  -8   3   4 29137.5 3108.41   4
   4   3  -5 330.001 265.315   1
   3   3  -5 355970. 9901.06   1
   2   3  -5 1788.56 634.932   4
   1  -3   5 295053. 6995.16   3
   1   3   5 275533. 7509.60   5
   1  -3  -5 291137. 10076.1   1
   1   3  -5 293891. 8905.05   4
   0   3  -5 1530.19 687.202   4
   0  -3  -5 1913.31 913.664   1
   0  -3   5 1602.81 404.886   3
   0   3   5 1748.46 358.790   5
  -1  -3   5 284567. 7483.76   3
  -1   3  -5 283211. 9129.60   4
  -1  -3  -5 294970. 10129.2   1
  -1   3   5 271236. 7945.67   4
  -2  -3  -5 1022.28 611.413   2
  -2  -3   5 1669.26 818.227   2
  -2   3  -5 1916.43 758.043   4
  -2  -3   5 1697.39 504.159   4
  -2   3   5 1158.69 527.162   4
  -2  -3   5 1866.79 746.061   6
  -2  -3  -5 368.049 428.936   6
  -2  -3   5 1106.60 449.087   3
  -2  -3   5 994.550 513.232   5
  -2  -3  -5 2911.90 1096.91   1
  -3  -3   5 375092. 11304.6   6
  -3  -3  -5 357169. 11044.6   6
  -3   3   5 363886. 8605.20   3
  -3  -3   5 371034. 10463.0   5
  -3   3  -5 358807. 11527.4   4
  -3  -3   5 364950. 8746.66   4
  -3  -3  -5 364321. 12060.1   2
  -3  -3   5 352354. 12114.2   2
  -3  -3  -5 370389. 12255.6   1
  -3  -3   5 375758. 10278.3   3
  -3   3   5 377841. 10234.9   4
  -4   3  -5 193.206 611.829   4
  -4  -3   5 416.601 185.582   4
  -4  -3  -5 77.9967 520.508   2
  -4  -3   5 512.432 801.299   2
  -4   3   5-162.755 337.831   4
  -4  -3   5 725.571 568.543   5
  -4   3   5 240.478 236.862   3
  -4  -3  -5 441.048 584.730   1
  -5  -3   5 131381. 6269.01   5
  -5  -3  -5 119308. 6727.15   1
  -5   3  -5 120585. 6610.65   4
  -5  -3  -5 122427. 7157.25   2
  -5  -3   5 126490. 7386.37   2
  -5   3   5 127253. 5555.47   4
  -6   3  -5 1403.74 896.644   4
  -6   3   5 259.672 527.480   4
  -6  -3  -5-951.081 857.388   2
  -6  -3   5-168.933 815.490   2
  -6  -3   5 153.710 568.185   5
  -6  -3  -5-63.5219 788.918   1
  -7  -3   5 139614. 7981.56   5
  -7   3  -5 148723. 8357.09   4
  -7  -3  -5 152197. 8273.69   1
  -7   3   5 144071. 6823.35   4
  -7  -3  -5 146443. 9117.85   2
  -7  -3   5 145658. 9228.94   2
  -8   3  -5 426.170 785.952   4
  -8   3   5 504.655 731.062   4
  -8  -3  -5 443.244 1056.29   2
  -8  -3   5 2793.29 1754.25   2
   2   3  -6 73494.6 4124.49   4
   1  -3  -6 4244.89 1109.12   1
   1   3  -6 3754.47 959.424   4
   0   3  -6 99059.3 4921.34   4
   0  -3   6 84545.4 3300.00   3
   0  -3  -6 91425.1 5278.81   1
  -1   3  -6 4723.41 1137.87   4
  -1  -3   6 3201.40 797.819   6
  -1  -3  -6 3402.84 813.916   6
  -1  -3   6 4491.77 744.212   3
  -1  -3  -6 4272.93 1218.85   1
  -2  -3   6 82549.7 3925.48   5
  -2  -3   6 80582.1 4150.99   6
  -2  -3   6 76601.2 3549.53   3
  -2  -3  -6 79329.4 4034.98   6
  -2   3  -6 80936.1 4688.72   4
  -2  -3  -6 69503.2 4697.68   1
  -2   3   6 75082.2 3696.45   4
  -3   3  -6 2635.85 971.448   4
  -3  -3   6 3310.05 653.135   4
  -3  -3  -6 2732.31 963.645   2
  -3  -3   6 3563.16 1157.57   2
  -3   3   6 3121.57 778.945   4
  -3  -3   6 2509.43 756.248   6
  -3  -3   6 3382.46 820.509   3
  -3  -3   6 3822.37 912.422   5
  -3   3   6 3473.58 594.160   3
  -3  -3  -6 2731.99 864.357   6
  -3  -3  -6 2441.11 1001.73   1
  -4   3   6 63824.6 2917.10   3
  -4  -3   6 63211.5 3931.72   5
  -4  -3   6 68296.9 3920.50   3
  -4   3  -6 73961.9 4967.81   4
  -4  -3  -6 67616.0 4792.78   2
  -4  -3   6 66337.2 4876.64   2
  -4  -3  -6 70627.7 5000.49   1
  -4   3   6 59379.4 3482.68   4
  -5  -3  -6-539.045 697.885   1
  -5   3  -6 1833.20 1057.49   4
  -5  -3  -6 2926.38 1182.58   2
  -5  -3   6 1089.67 871.979   2
  -5   3   6 188.513 479.529   4
  -5   3   6 938.154 457.361   3
  -5  -3   6 778.774 652.187   5
  -6  -3   6 59114.4 4537.08   5
  -6   3  -6 51856.3 4695.83   4
  -6  -3  -6 60498.8 5070.75   1
  -6  -3  -6 51820.8 4933.86   2
  -6  -3   6 60832.3 5387.43   2
  -6   3   6 54913.4 3763.77   4
  -7   3  -6 829.645 1046.69   4
  -7   3   6 683.684 575.760   4
  -7  -3  -6 863.278 1104.41   2
  -7  -3   6 950.805 1035.72   2
  -7  -3   6 1202.22 957.625   5
  -7  -3  -6 1198.61 1024.48   1
  -8   3  -6 34679.3 4430.32   4
  -8  -3  -6 36581.6 4799.50   2
  -8  -3   6 31464.7 4616.05   2
  -8   3  -6 28728.3 3711.40   1
  -8   3   6 37431.5 3533.83   4
   1   3  -7 176311. 7388.92   4
   1  -3  -7 185699. 7973.79   1
   0  -3   7 220.290 299.188   3
   0   3  -7 81.5054 389.519   4
  -1  -3  -7 166220. 5976.50   6
  -1  -3   7 174717. 5622.86   3
  -1  -3   7 165667. 6189.47   6
  -1   3  -7 173185. 7458.42   4
  -1  -3  -7 176682. 7823.76   1
  -2   3  -7 6743.97 1459.00   4
  -2   3   7 5817.90 463.011   5
  -2  -3   7 5979.17 1139.52   6
  -2  -3  -7 6596.55 1147.71   6
  -2  -3   7 7246.81 1059.83   3
  -2  -3  -7 6034.97 1426.52   1
  -3  -3   7 239599. 7923.72   3
  -3   3   7 249446. 6919.22   3
  -3  -3   7 248809. 8353.58   5
  -3  -3  -7 228213. 8277.72   6
  -3   3  -7 248346. 9893.18   4
  -3  -3  -7 248762. 9454.16   2
  -3  -3   7 253585. 9744.71   2
  -3  -3   7 241751. 8600.49   6
  -3  -3  -7 248333. 10129.3   1
  -3   3   7 246208. 8006.78   4
  -4   3  -7 529.606 685.282   4
  -4  -3  -7 1189.35 872.431   1
  -4  -3  -7 990.817 873.477   2
  -4  -3   7 1320.50 927.598   2
  -4   3   7 657.255 577.298   4
  -4  -3   7 100.817 497.733   3
  -4  -3   7 1329.47 669.908   5
  -4   3   7 1259.39 461.768   3
  -5   3   7 114768. 4625.37   3
  -5  -3   7 115527. 6045.00   5
  -5   3  -7 113918. 6979.88   4
  -5  -3  -7 97732.7 6426.46   2
  -5  -3   7 107328. 6824.45   2
  -5  -3  -7 110250. 6894.97   1
  -5   3   7 111315. 5299.86   4
  -6   3  -7 345.102 921.406   4
  -6  -3  -7 1059.70 953.631   1
  -6  -3  -7 1788.13 1130.64   2
  -6  -3   7-409.879 742.362   2
  -6   3   7 460.731 664.639   4
  -6  -3   7-440.477 608.043   5
  -7  -3   7 135157. 7780.31   5
  -7   3  -7 128264. 8388.93   4
  -7  -3  -7 113841. 7745.70   1
  -7  -3  -7 125504. 8419.86   2
  -7  -3   7 115804. 8374.81   2
  -7   3   7 130292. 6443.23   4
  -8   3  -7 2124.84 1645.45   4
  -8   3   7 1750.52 918.663   4
  -8  -3  -7 2836.80 1479.40   2
  -8  -3   7 2958.62 1704.37   2
  -8  -3   7 3623.79 1589.19   5
  -8   3  -7 114.561 908.733   1
   2  -3  -8 60315.5 4429.56   1
   1  -3  -8 205.878 513.161   1
   1   3  -8-686.142 582.267   4
   0  -3   8 57460.0 2912.55   3
   0   3  -8 52607.2 4063.89   4
   0  -3  -8 58189.0 4377.75   1
  -1  -3   8 402.118 400.860   6
  -1  -3  -8 3.83042 338.539   6
  -1  -3   8 448.433 424.721   3
  -1  -3  -8-345.185 553.998   1
  -1   3  -8-739.590 674.712   4
  -2  -3   8 50318.3 2977.49   3
  -2  -3   8 52156.9 3232.13   6
  -2  -3  -8 49263.2 3078.03   6
  -2   3   8 50892.7 1815.42   5
  -2   3  -8 48798.7 4039.05   4
  -2  -3  -8 46316.1 4068.98   1
  -3   3  -8-70.3997 692.544   4
  -3  -3  -8 712.401 647.822   1
  -3  -3  -8 1388.51 761.044   2
  -3  -3   8-194.038 509.354   2
  -3  -3   8 103.812 460.570   3
  -3   3   8 194.067 346.262   3
  -3   3   8 131.201 393.552   4
  -3  -3   8-14.6470 430.075   5
  -3  -3  -8 194.931 472.330   6
  -3   3   8 413.853 208.548   5
  -3  -3   8-638.856 545.904   6
  -4  -3   8 42822.9 3191.58   3
  -4   3   8 43824.6 2602.54   3
  -4  -3   8 45624.0 3427.41   5
  -4   3  -8 35656.4 3813.69   4
  -4  -3  -8 41187.7 3746.85   2
  -4  -3  -8 39812.2 4037.63   1
  -4  -3   8 42617.8 3950.39   2
  -4   3   8 47488.0 3272.97   4
  -5   3  -8 500.740 878.540   4
  -5  -3  -8 398.274 928.197   1
  -5  -3  -8 315.212 600.688   2
  -5  -3   8-1344.11 933.657   2
  -5   3   8-654.333 523.225   4
  -5   3   8-73.3773 302.165   3
  -5  -3   8-84.6151 497.795   3
  -5  -3   8-307.775 763.698   5
  -6  -3  -8 35018.0 4126.78   1
  -6  -3  -8 35139.8 4035.73   2
  -6  -3   8 30136.8 3872.10   2
  -6  -3   8 36629.4 3634.50   5
  -6   3  -8 42741.6 4640.46   4
  -6   3   8 34573.0 3022.36   4
  -6   3   8 34662.9 2689.36   3
  -7   3  -8 209.145 829.792   4
  -7  -3  -8-143.016 745.186   1
  -7  -3  -8 624.111 1020.51   2
  -7  -3   8-207.989 891.830   2
  -7   3   8 295.916 676.517   4
  -7  -3   8 528.970 849.938   5
  -8  -3  -8 26869.4 4114.06   2
  -8  -3   8 26184.2 4315.90   2
  -8  -3   8 26727.8 3831.28   5
  -8   3   8 26368.3 3923.45   2
  -8   3  -8 26626.1 3727.00   2
  -8   3  -8 24838.3 3669.85   1
  -8   3  -8 24073.8 3925.45   4
   2  -3  -9-916.996 741.968   1
   1   3  -9 187017. 8684.37   4
   1  -3  -9 206368. 8890.55   1
   0  -3   9 4846.78 873.838   3
   0  -3  -9 6333.95 1517.61   1
   0   3  -9 8207.01 1774.38   4
  -1  -3   9 189539. 6488.55   6
  -1  -3   9 190387. 6454.53   3
  -1   3  -9 181400. 8627.40   4
  -1  -3  -9 191492. 8820.47   1
  -1  -3  -9 185002. 6273.09   6
  -2  -3  -9 816.676 792.770   1
  -2  -3   9-181.307 365.575   6
  -2  -3  -9 7.51214 332.685   6
  -2  -3   9 280.850 490.195   3
  -2   3   9 205.256 176.407   5
  -2   3  -9-52.3814 717.673   4
  -3  -3   9 209214. 7506.28   3
  -3   3   9 223342. 6847.57   3
  -3   3   9 212194. 5581.98   5
  -3  -3   9 207512. 7859.94   5
  -3   3  -9 206308. 9719.71   4
  -3  -3  -9 200729. 8450.50   2
  -3  -3   9 204910. 8733.63   2
  -3  -3  -9 216165. 9853.83   1
  -3   3   9 195977. 7608.05   4
  -4   3  -9 737.455 901.775   4
  -4  -3   9 107.132 618.713   5
  -4  -3  -9 1298.41 908.910   2
  -4  -3   9 1241.00 853.315   2
  -4  -3  -9 15.8306 824.542   1
  -4   3   9 306.323 597.893   4
  -4  -3   9 935.808 723.968   3
  -4   3   9 727.532 498.564   3
  -5  -3   9 108162. 5731.16   3
  -5   3   9 99064.6 4600.50   3
  -5  -3   9 106993. 5997.88   5
  -5   3  -9 103366. 7285.84   4
  -5  -3  -9 89479.5 6178.99   2
  -5  -3   9 97147.1 6581.93   2
  -5  -3  -9 98218.4 6986.18   1
  -5   3   9 108742. 5511.63   4
  -6   3  -9 1993.60 1174.19   4
  -6  -3  -9 199.949 795.015   1
  -6  -3  -9 2645.82 1362.97   2
  -6  -3   9 839.151 973.838   2
  -6   3   9 1554.74 764.888   4
  -6   3   9 981.324 509.687   3
  -6  -3   9 1004.24 887.224   5
  -7   3  -9 100742. 7354.63   1
  -7  -3   9 109837. 7161.36   5
  -7   3  -9 109638. 8268.12   4
  -7  -3  -9 109232. 7822.62   2
  -7  -3   9 114240. 8279.28   2
  -7  -3  -9 98059.4 7610.94   1
  -7   3   9 103558. 5870.27   4
  -8  -3  -9-1786.32 1412.16   2
  -8  -3   9 1368.53 1308.13   2
  -8   3  -9 2416.14 1277.74   2
  -8   3  -9-374.875 1024.12   1
  -8   3   9-890.673 1052.80   2
  -8   3  -9-2216.68 1627.26   4
  -8  -3  -9-2080.35 1358.37   1
   2  -3 -10 58710.8 4694.90   1
   1  -3 -10 1218.50 917.363   1
   0  -3  10 60383.6 3330.71   3
   0   3 -10 61303.6 5072.48   4
   0  -3 -10 61033.5 4835.53   1
  -1  -3  10 1024.14 443.406   6
  -1  -3 -10 110.885 345.316   6
  -1  -3  10 846.385 501.240   3
  -1  -3 -10 1559.74 941.869   1
  -1   3 -10 315.462 900.511   4
  -2  -3  10 55942.1 3354.95   6
  -2  -3 -10 59963.1 3358.64   6
  -2  -3  10 58047.8 3595.82   3
  -2   3 -10 55850.4 4886.78   4
  -2  -3 -10 69117.1 5336.85   1
  -3  -3  10-381.124 649.159   5
  -3  -3 -10 449.566 675.075   1
  -3  -3  10 341.357 491.083   3
  -3   3  10 1062.39 532.726   3
  -3   3 -10 92.4418 863.970   4
  -4  -3  10 53114.0 3749.55   3
  -4  -3  10 48368.8 3751.57   5
  -4   3 -10 46290.8 4783.67   4
  -4  -3 -10 48041.3 4097.54   2
  -4  -3  10 54679.2 4505.97   2
  -4   3  10 48629.3 3081.03   3
  -4  -3 -10 44560.8 4577.08   1
  -4   3  10 48293.4 3568.25   4
  -5  -3 -10-422.753 699.032   2
  -5  -3  10 745.554 733.214   2
  -5  -3 -10 838.595 905.024   1
  -5   3  10 383.379 543.847   4
  -5  -3  10 151.454 579.769   3
  -5   3  10 1001.12 492.074   3
  -5  -3  10 2192.80 1029.63   5
  -5   3 -10-1112.17 1109.24   4
  -6  -3 -10 36036.2 4475.50   1
  -6  -3 -10 36433.6 4143.85   2
  -6  -3  10 39507.6 4452.91   2
  -6   3  10 39645.6 3099.53   3
  -6  -3  10 40039.5 3999.01   5
  -6   3  10 34916.2 3231.30   4
  -6   3 -10 41483.1 4948.56   4
  -7  -3 -10 943.974 1313.79   1
  -7  -3 -10 1939.09 1281.35   2
  -7  -3  10 1918.56 1246.62   2
  -7   3 -10-1350.91 1206.76   1
  -7   3  10 1861.97 930.370   4
  -7  -3  10 1264.01 1025.55   5
  -7   3 -10-76.1682 919.280   4
  -8  -3 -10 24728.4 4034.61   1
  -8  -3 -10 21654.5 3792.05   2
  -8  -3  10 33847.3 4914.07   2
  -8   3  10 33146.0 4566.14   2
  -8   3 -10 26339.3 3822.52   2
  -8   3 -10 25606.2 4069.55   1
  -8   3 -10 21324.4 4011.28   4
   3   3 -11 145805. 5847.18   1
   2  -3 -11 439.541 728.167   1
   1  -3 -11 139351. 7611.10   1
   0  -3  11 4971.75 902.920   6
   0  -3 -11 5679.17 877.229   6
   0  -3  11 4779.29 973.988   3
   0  -3 -11 3329.52 1276.16   1
   0   3 -11 6559.73 1768.09   4
  -1  -3 -11 137841. 4985.91   6
  -1  -3  11 134442. 5098.95   6
  -1  -3  11 137393. 5743.57   3
  -1   3 -11 144868. 8322.57   4
  -1  -3 -11 138911. 7792.31   1
  -2  -3 -11 253.099 813.815   1
  -2  -3  11-80.7845 361.944   6
  -2  -3  11-406.629 540.020   3
  -2   3 -11-36.8230 623.818   4
  -3  -3  11 146724. 6485.21   3
  -3   3  11 156752. 6062.84   3
  -3  -3  11 151197. 6953.50   5
  -3   3 -11 149575. 8894.80   4
  -3  -3 -11 156257. 8731.19   1
  -4  -3 -11 1435.26 801.773   2
  -4  -3  11-446.469 594.919   2
  -4  -3 -11 1710.97 1272.74   1
  -4   3  11 742.869 626.527   4
  -4  -3  11-193.171 558.309   3
  -4  -3  11 897.534 637.770   5
  -4   3  11 1058.05 573.369   3
  -4   3 -11 1788.47 1268.18   4
  -5  -3  11 92651.3 5602.76   3
  -5  -3  11 101222. 6080.37   5
  -5   3 -11 95327.3 7555.31   4
  -5  -3 -11 85920.1 6011.78   2
  -5  -3  11 94268.2 6516.42   2
  -5   3  11 96987.2 4901.01   3
  -5  -3 -11 94881.5 7251.53   1
  -5   3  11 89741.1 5344.88   4
  -6  -3 -11 1290.31 1025.88   2
  -6  -3  11 3204.47 1407.90   2
  -6  -3 -11 217.245 819.056   1
  -6   3  11 549.250 635.789   4
  -6  -3  11 296.475 696.315   3
  -6   3  11 1584.72 853.169   3
  -6  -3  11 1750.41 1035.89   5
  -6   3 -11 899.657 1058.40   1
  -6   3 -11 729.191 938.507   4
  -7   3  11 89915.6 6914.75   2
  -7   3 -11 68985.6 6455.60   1
  -7  -3  11 91662.1 6715.05   5
  -7   3 -11 90586.7 8071.06   4
  -7  -3  11 71732.8 6574.35   2
  -7  -3 -11 81446.2 7311.19   1
  -7   3  11 79731.9 5289.51   4
  -8  -3 -11-3050.32 1719.97   1
   3  -3 -12 1260.73 918.077   1
   2  -3 -12 56900.2 4868.09   1
   1  -3 -12 85.7230 796.180   1
   0  -3  12 48978.7 2710.48   6
   0  -3  12 49476.9 3302.01   3
   0  -3 -12 52527.0 4712.62   1
  -1  -3  12 476.966 372.334   6
  -1  -3  12 676.115 552.932   3
  -1   3 -12 507.078 1148.70   4
  -1  -3 -12-874.667 851.958   1
  -2  -3  12 47346.4 3419.54   3
  -2   3 -12 47909.6 5048.61   4
  -2  -3 -12 51942.3 4911.09   1
  -3  -3 -12 391.937 741.502   1
  -3  -3  12-252.807 483.388   3
  -3  -3  12 453.400 678.101   5
  -3   3  12-53.8201 373.825   3
  -3   3 -12 719.761 953.011   4
  -4  -3  12 43421.3 3647.51   3
  -4   3  12 39565.4 3042.56   3
  -4  -3  12 39518.8 3825.69   2
  -4  -3  12 43468.3 3763.37   5
  -4  -3 -12 45347.5 4902.63   1
  -4   3  12 43935.9 3756.50   4
  -4   3 -12 33124.2 4473.63   4
  -5  -3 -12 618.121 968.936   1
  -5   3  12-1144.75 775.851   4
  -5  -3  12 488.102 647.637   3
  -5   3  12 421.741 650.865   3
  -5  -3  12-1027.19 849.056   5
  -5   3 -12-773.800 945.358   1
  -5   3 -12 2171.72 1418.34   4
  -6   3 -12 30322.4 4194.52   1
  -6  -3 -12 36816.3 4802.33   1
  -6   3  12 26593.5 3002.55   4
  -6   3  12 31842.3 2979.46   3
  -6  -3  12 38539.0 3860.23   3
  -6  -3  12 34196.6 3888.77   5
  -6   3 -12 39507.1 5231.66   4
  -7  -3 -12-1827.82 1443.67   1
  -7   3  12-17.2265 531.196   4
  -7  -3  12-1006.54 1037.08   5
  -7   3 -12 1042.65 1269.38   4
   3  -3 -13 107805. 6980.91   1
   2  -3 -13 2082.79 828.423   1
   2   3 -13 1509.52 771.901   1
   1  -3 -13 107590. 7052.00   1
   0  -3  13-310.213 430.121   3
   0  -3 -13 1409.34 992.083   1
  -1  -3  13 109950. 5474.80   3
  -1   3 -13 105391. 7682.47   4
  -1  -3 -13 117311. 7624.11   1
  -2  -3 -13 4643.22 1784.86   1
  -2  -3  13 2787.74 930.902   3
  -2   3 -13 4970.47 1797.09   4
  -3  -3  13 112699. 5901.25   3
  -3   3  13 111146. 5393.53   3
  -3  -3  13 115152. 6331.58   5
  -3   3 -13 96868.7 7718.56   4
  -3  -3 -13 111169. 7762.00   1
  -4  -3 -13 2705.49 1441.74   1
  -4   3 -13 1454.52 1082.59   1
  -4   3  13-34.5686 666.366   4
  -4  -3  13 706.045 702.605   3
  -4  -3  13 10.5065 489.020   5
  -4   3  13 879.677 671.212   3
  -4   3 -13 821.072 1054.57   4
  -5  -3  13 74015.3 5260.97   3
  -5   3 -13 73045.0 6492.33   1
  -5   3  13 83845.0 4864.99   3
  -5  -3  13 79417.5 5647.84   5
  -5   3 -13 82220.0 7632.03   4
  -5  -3 -13 76046.7 6860.94   1
  -5   3  13 80289.3 5369.68   4
  -6  -3 -13-878.948 1058.40   1
  -6   3  13-12.9456 797.411   4
  -6   3 -13 1026.68 1094.79   1
  -6  -3  13-1105.72 862.136   3
  -6  -3  13-335.358 929.961   5
  -6   3 -13 731.264 1055.49   4
  -7   3  13 56765.2 4663.16   4
   3  -3 -14 1138.03 914.883   1
   2   3 -14 31710.6 3131.92   1
   2  -3 -14 33145.2 3926.66   1
   1   3 -14 1065.30 768.039   1
   1  -3 -14 335.195 746.808   1
   0  -3  14 29880.0 2777.10   3
   0  -3 -14 24276.1 3515.33   1
   0   3 -14 26963.3 3170.87   1
  -1  -3  14 848.519 616.155   3
  -1   3 -14 790.452 666.961   1
  -1  -3 -14 1498.79 1168.34   1
  -2  -3 -14 30457.2 4017.57   1
  -2   3 -14 31306.6 3707.58   1
  -2  -3  14 34629.8 3142.83   3
  -2   3 -14 32333.9 4429.74   4
  -3   3 -14 24.1376 778.362   1
  -3  -3  14 556.315 590.544   5
  -3  -3 -14 1484.28 1270.98   1
  -3  -3  14 789.165 736.725   3
  -3   3  14 709.940 597.850   3
  -3   3 -14 1142.79 973.408   4
  -4   3 -14 30981.0 4125.58   1
  -4  -3 -14 24627.8 3957.58   1
  -4  -3  14 27432.7 3054.61   3
  -4   3  14 25691.0 2662.73   3
  -4  -3  14 28996.6 3298.04   5
  -4   3 -14 33351.5 4825.30   4
  -5  -3 -14-897.617 1264.76   1
  -5   3  14 1499.06 989.682   4
  -5   3 -14-158.190 954.325   1
  -5  -3  14-480.983 722.505   3
  -5   3  14 46.4898 776.052   3
  -5  -3  14 1415.94 946.863   5
  -5   3 -14-706.343 1297.36   4
  -6  -3 -14 24535.9 4239.25   1
  -6   3  14 17825.5 2671.10   4
  -6  -3  14 21212.2 3170.29   5
  -6   3 -14 21889.5 4262.06   4
   2  -3 -15-374.147 767.209   1
   1   3 -15 84496.5 5712.05   1
   1  -3 -15 88451.7 6723.94   1
   0   3 -15 1257.32 793.527   1
   0  -3  15 1323.21 888.848   3
   0  -3 -15-518.817 844.330   1
  -1   3 -15 91390.0 6528.94   1
  -1  -3  15 85608.2 5184.23   3
  -1  -3 -15 85083.0 6882.70   1
  -2  -3 -15 2376.06 1398.62   1
  -2  -3  15-213.861 564.887   3
  -2   3 -15 2008.23 1087.26   1
  -3   3 -15 77340.8 6508.15   1
  -3  -3  15 80872.2 5296.58   3
  -3   3  15 85717.5 5060.61   3
  -3  -3  15 80826.2 5644.53   5
  -3  -3 -15 73426.6 6742.49   1
  -4  -3 -15 1515.86 1214.23   1
  -4   3 -15-368.033 948.599   1
  -4   3  15-972.999 759.943   3
  -4  -3  15 292.760 752.711   3
  -4  -3  15-698.267 733.170   5
  -4   3 -15-2171.89 1454.74   4
  -5   3 -15 72270.2 6853.93   1
  -5  -3  15 85678.7 5926.63   3
  -5   3  15 68068.0 4777.58   3
  -5  -3  15 69634.3 5574.74   5
  -5   3 -15 69734.7 7431.03   4
  -5  -3 -15 79343.9 7448.06   1
  -5   3  15 76343.4 5656.96   4
  -6   3  15-1284.10 910.831   4
   2  -3 -16 38667.9 4548.96   1
   1   3 -16 924.036 867.289   1
   1  -3 -16 109.239 818.969   1
   0  -3  16 27161.8 2907.40   3
   0   3 -16 30712.5 3708.41   1
   0  -3 -16 29117.5 4024.23   1
  -1  -3  16 532.273 726.234   3
  -1   3 -16-1815.43 1199.55   1
  -1  -3 -16 288.726 974.554   1
  -2  -3 -16 29970.7 4341.63   1
  -2  -3  16 33288.3 3396.39   3
  -2   3 -16 36283.3 4402.43   1
  -3  -3 -16-375.361 1069.99   1
  -3  -3  16 332.064 668.845   3
  -3  -3  16 439.684 706.037   5
  -3   3  16 2041.99 943.211   3
  -3   3 -16-797.454 1008.45   1
  -4  -3 -16 26382.1 4326.99   1
  -4  -3  16 28815.5 3335.82   3
  -4  -3  16 23362.4 3157.58   5
  -4   3 -16 23860.5 3913.65   1
  -4   3  16 27830.0 2991.35   3
  -5   3  16 1454.29 985.419   4
  -5   3  16-77.8168 650.166   3
   2  -3 -17 1741.61 1346.42   1
   1   3 -17 90903.5 6428.09   1
   1  -3  17 97415.8 5796.95   3
   1  -3 -17 79592.4 6916.53   1
   0   3 -17-1556.87 1070.02   1
   0  -3  17 1365.76 873.031   3
   0  -3 -17-164.255 810.633   1
  -1   3 -17 85850.3 6727.80   1
  -1  -3  17 91182.8 5745.93   3
  -1  -3 -17 80510.4 7176.96   1
  -2  -3 -17 1954.16 1488.16   1
  -2   3 -17-1389.24 1216.94   1
  -2  -3  17-492.694 729.949   3
  -3   3 -17 68393.8 6564.49   1
  -3  -3  17 71267.3 5287.80   3
  -3   3  17 68232.6 4872.65   3
  -3  -3  17 71898.6 5670.78   5
  -3  -3 -17 72137.4 7106.98   1
  -4   3  17 599.317 728.965   3
  -5   3  17 63524.2 4901.34   3
   1  -3  18-1145.86 882.394   3
   1  -3 -18 942.463 938.836   1
   0  -3  18 22086.3 2835.55   3
   0  -3 -18 16988.5 3370.83   1
   0   3 -18 21597.2 3362.16   1
  -1  -3  18 1820.49 1125.25   3
  -1  -3 -18-678.207 1045.84   1
  -1   3 -18 364.946 962.673   1
  -2   3 -18 24910.8 3852.87   1
  -2  -3  18 25762.7 3214.13   3
  -2   3  18 24419.2 2966.36   3
  -2  -3 -18 24022.9 4139.91   1
  -3   3  18 755.451 783.232   3
   1  -3 -19 38296.5 5042.53   1
   0   3 -19 3026.56 1441.16   1
   0  -3 -19 2757.84 1673.72   1
  -1   3 -19 37279.7 4750.05   1
   3   4   0-321.491 207.007   4
   2   4   0 348357. 8478.79   4
   1   4   0 1.33834 305.758   4
   0  -4   0 447904. 10139.3   5
   0   4   0 443375. 9636.70   3
   0   4   0 459640. 11186.9   4
  -1  -4   0 96.5548 231.500   5
  -1   4   0 111.085 60.8269   3
  -2  -4   0 361095. 11318.9   6
  -2  -4   0 341730. 9516.30   5
  -2   4   0 356223. 10070.4   4
  -3  -4   0 48.3385 548.800   2
  -3   4   0-7.47445 361.477   4
  -3  -4   0 281.787 451.650   6
  -3  -4   0 65.1012 327.429   5
  -4  -4   0 275997. 9555.10   5
  -4  -4   0 273842. 10460.3   6
  -4  -4   0 276645. 11470.0   2
  -4   4   0 255908. 9177.65   4
  -5  -4   0-2199.81 1161.21   2
  -5   4   0-297.400 564.142   4
  -6   4   0 181519. 8075.69   4
  -6  -4   0 166712. 9676.50   2
  -7   4   0-434.332 639.126   4
  -7  -4   0 1335.70 1155.05   2
  -8   4   0 98950.6 6650.03   4
  -8  -4   0 103272. 8604.39   2
   4   4   1 220.915 120.187   4
   3   4  -1 65055.5 2488.62   4
   3   4   1 68026.6 2458.45   4
   2   4  -1 933.783 332.543   4
   2   4   1 693.081 272.807   4
   1  -4  -1 80452.0 2420.08   5
   1   4  -1 75509.8 3289.67   4
   1   4   1 77862.0 3169.76   4
   0   4  -1 683.556 362.520   4
   0   4   1 896.013 405.338   4
   0  -4  -1 1636.81 393.878   5
   0   4  -1 732.145 210.764   3
   0  -4   1 1453.41 450.620   5
  -1   4   1 73435.0 2000.00   3
  -1  -4  -1 78793.4 3208.70   5
  -1  -4   1 86246.3 3377.35   5
  -1   4  -1 84773.8 3896.23   4
  -1   4   1 79182.3 3617.82   4
  -2   4  -1 999.440 491.791   4
  -2   4   1 1160.30 505.289   4
  -2  -4   1 574.256 224.043   4
  -2  -4   1 890.435 634.898   6
  -2  -4  -1 652.320 570.735   6
  -2  -4  -1 510.465 370.199   5
  -2  -4   1 942.565 431.523   5
  -3  -4  -1 72623.1 4611.49   6
  -3  -4  -1 61829.4 3694.86   5
  -3  -4   1 73059.8 3859.19   5
  -3  -4   1 64397.5 4366.97   6
  -3  -4  -1 59142.0 4665.67   2
  -3  -4   1 61569.0 4804.21   2
  -3   4  -1 66966.7 3887.32   4
  -3   4   1 64481.8 3676.24   4
  -4  -4  -1 468.197 805.655   2
  -4  -4   1 418.711 663.479   2
  -4   4  -1 423.207 544.177   4
  -4   4   1 301.512 513.020   4
  -4  -4   1 813.479 701.570   6
  -4  -4  -1-147.185 649.807   6
  -4  -4  -1 703.670 648.579   1
  -4  -4   1 257.020 588.590   5
  -5  -4   1 58784.3 4338.24   5
  -5  -4  -1 68183.2 4800.74   1
  -5   4  -1 57905.8 4143.07   4
  -5  -4  -1 58406.2 5182.12   2
  -5  -4   1 55929.0 5056.45   2
  -5   4   1 60652.5 4064.23   4
  -6   4  -1-552.586 829.995   4
  -6   4   1-254.085 690.165   4
  -6  -4  -1 1446.44 1027.94   2
  -6  -4   1 707.742 873.307   2
  -6  -4  -1-171.970 547.398   1
  -7  -4  -1 41682.7 5020.01   2
  -7  -4   1 42335.5 5032.30   2
  -7   4  -1 40370.0 3938.11   4
  -7   4   1 35813.0 3565.97   4
  -8   4  -1-2154.42 1192.19   4
  -8   4   1-534.357 822.348   4
  -8  -4  -1-240.581 887.973   2
  -8  -4   1-156.087 897.447   2
   4   4   2 156090. 4008.62   4
   3   4  -2 811.995 338.221   4
   3   4   2 412.843 215.892   4
   3  -4  -2 596.514 212.933   5
   2   4  -2 169430. 5106.38   4
   2   4   2 160854. 4643.62   4
   1   4  -2 6318.56 944.996   4
   1   4   2 6327.00 822.408   4
   1  -4  -2 7023.63 511.478   5
   0   4  -2 201215. 5036.90   3
   0  -4  -2 202308. 5245.24   5
   0   4  -2 196669. 6502.13   4
   0   4   2 206532. 6170.02   4
  -1   4  -2 6456.84 1082.71   4
  -1   4   2 7137.52 1015.24   4
  -1  -4  -2 6226.88 846.099   5
  -1  -4   2 7345.06 960.519   5
  -2  -4   2 163382. 6994.45   6
  -2  -4  -2 166273. 6978.64   6
  -2  -4   2 173868. 5875.85   5
  -2   4  -2 171209. 6462.36   4
  -2   4   2 164389. 5956.17   4
  -2  -4   2 160825. 4645.80   4
  -3  -4  -2 714.341 736.009   2
  -3  -4   2 690.132 714.352   2
  -3   4  -2 1408.19 623.839   4
  -3   4   2 1337.03 608.746   4
  -3  -4  -2 945.651 825.207   1
  -3  -4   2-119.267 539.339   6
  -3  -4  -2 1069.11 759.655   6
  -3  -4   2 913.805 662.924   5
  -4  -4  -2 165152. 7726.53   6
  -4  -4   2 160506. 6781.34   5
  -4  -4  -2 170103. 7886.25   1
  -4  -4  -2 150709. 8203.82   2
  -4  -4   2 151739. 8273.32   2
  -4   4  -2 167157. 7135.62   4
  -4  -4   2 160701. 7699.25   6
  -4   4   2 175835. 6807.17   4
  -5   4  -2 2564.05 1000.74   4
  -5  -4  -2 2838.15 1270.38   2
  -5  -4   2 2597.34 1171.37   2
  -5   4   2 1265.11 728.889   4
  -5  -4  -2 3007.30 1132.34   1
  -5  -4   2 3140.25 1047.79   5
  -6  -4  -2 123696. 7052.53   1
  -6   4  -2 125273. 6894.44   4
  -6   4   2 128933. 6538.59   4
  -6  -4  -2 122594. 8157.97   2
  -6  -4   2 134525. 8578.66   2
  -7   4  -2 106.868 602.995   4
  -7   4   2 107.094 531.435   4
  -7  -4  -2-1533.45 1189.72   2
  -7  -4   2 1157.10 1076.33   2
  -8   4  -2 78470.0 6078.87   4
  -8   4   2 79089.9 5728.94   4
  -8  -4  -2 80128.4 7524.46   2
  -8  -4   2 82958.7 7716.47   2
   4   4   3 1514.27 344.196   4
   3   4  -3 70470.0 3023.76   4
   3   4   3 73621.1 2728.43   4
   2   4  -3 2109.77 578.106   4
   2   4   3 2427.68 513.197   4
   2  -4   3 2298.33 256.476   3
   1  -4   3 87521.7 2616.98   3
   1   4   3 83314.0 3122.98   5
   1   4  -3 83236.4 3818.45   4
   1   4   3 91179.5 3510.04   4
   0   4  -3 6716.88 1057.66   4
   0   4   3 5447.64 873.328   4
  -1  -4   3 82006.8 3622.62   5
  -1   4  -3 85076.0 4279.06   4
  -1   4   3 89718.9 3852.09   4
  -2   4  -3 2687.57 852.208   4
  -2  -4   3 1843.90 418.576   4
  -2   4   3 2624.52 708.973   4
  -2  -4   3 3377.79 1038.77   6
  -2  -4  -3 2761.98 857.895   6
  -2  -4  -3 3723.39 1156.92   1
  -2  -4   3 3170.41 739.130   5
  -2   4   3 2414.84 295.791   3
  -3  -4   3 76329.3 4751.50   6
  -3  -4  -3 69711.8 4516.08   6
  -3  -4   3 66290.1 3731.65   5
  -3  -4  -3 60727.7 4536.38   1
  -3  -4  -3 81839.5 5447.60   2
  -3  -4   3 64186.0 4948.86   2
  -3   4  -3 66945.7 4176.42   4
  -3   4   3 74919.4 3899.09   4
  -3  -4   3 64898.2 2238.00   4
  -4   4  -3 1132.90 749.825   4
  -4  -4  -3 2319.40 1165.50   2
  -4  -4   3 719.389 731.013   2
  -4   4   3 1099.15 659.837   4
  -4  -4   3 1992.63 859.860   6
  -4  -4  -3 1372.86 829.887   6
  -4  -4  -3 696.882 675.984   1
  -4  -4   3 949.683 643.519   5
  -5  -4   3 63231.3 4403.95   5
  -5  -4  -3 59447.8 4692.13   1
  -5   4  -3 67089.8 4689.38   4
  -5  -4  -3 57780.4 5182.00   2
  -5  -4   3 58816.7 5270.15   2
  -5   4   3 67329.7 4251.25   4
  -6   4  -3 728.847 659.784   4
  -6  -4  -3 1252.61 1042.15   2
  -6  -4   3 2088.43 1239.00   2
  -6   4   3 518.106 596.935   4
  -6  -4   3 1326.30 825.478   5
  -6  -4  -3 1709.38 999.566   1
  -7  -4  -3 40398.6 4923.35   2
  -7  -4   3 43829.2 5201.77   2
  -7   4  -3 38039.1 4118.30   4
  -7   4   3 42871.6 3820.38   4
  -8   4  -3-425.003 817.610   4
  -8   4   3-227.406 738.467   4
  -8  -4  -3-1575.43 1378.63   2
  -8  -4   3-1043.36 1314.81   2
  -9   4  -3 26469.4 3865.86   4
   4   4   4 215869. 5800.16   4
   3   4   4 4469.13 698.872   4
   3   4  -4 5173.45 896.590   4
   2  -4   4 274819. 6156.63   3
   2   4  -4 268918. 8258.25   4
   2   4   4 279112. 7460.21   4
   1   4  -4 168.311 268.451   4
   1   4   4 31.6600 326.843   4
   1  -4   4 375.320 216.074   3
   1   4   4-97.3968 171.665   5
   0  -4   4 352819. 8600.31   3
   0   4  -4 349446. 10305.0   4
   0   4   4 363553. 9491.63   4
  -1   4  -4-265.958 422.950   4
  -1   4   4 815.290 438.354   4
  -1  -4  -4 74.9728 513.160   1
  -1  -4   4 56.7180 257.271   3
  -2  -4   4 272141. 9591.54   6
  -2  -4  -4 275906. 9491.34   6
  -2  -4   4 276314. 8372.47   5
  -2  -4  -4 278047. 10682.5   1
  -2   4  -4 272979. 9300.91   4
  -2   4   4 282602. 8482.90   4
  -3  -4  -4 4276.29 1345.97   2
  -3  -4   4 5649.90 1500.03   2
  -3   4  -4 5012.55 1186.53   4
  -3  -4   4 4641.30 576.902   4
  -3   4   4 4945.70 993.135   4
  -3  -4   4 5127.93 1281.84   6
  -3  -4  -4 3674.78 1154.91   1
  -3   4   4 4337.32 494.377   3
  -3  -4   4 5227.95 1056.70   5
  -3  -4  -4 5528.20 1298.59   6
  -4  -4  -4 223871. 9177.59   6
  -4  -4   4 229669. 8372.71   5
  -4  -4   4 217075. 9170.01   6
  -4  -4  -4 223288. 9657.46   1
  -4   4  -4 203670. 8617.44   4
  -4  -4  -4 203355. 9757.72   2
  -4  -4   4 204292. 9831.59   2
  -4   4   4 231778. 8040.98   4
  -5   4  -4 856.619 680.117   4
  -5  -4  -4 11.0176 564.419   2
  -5  -4   4 1586.18 1244.77   2
  -5   4   4 374.894 489.439   4
  -5  -4   4 1092.13 895.560   5
  -5  -4  -4 42.4411 586.424   1
  -6  -4   4 147393. 7698.26   5
  -6  -4  -4 146759. 8115.80   1
  -6   4  -4 152139. 8026.73   4
  -6  -4  -4 143919. 8871.83   2
  -6  -4   4 140308. 8917.40   2
  -6   4   4 143261. 6882.42   4
  -7   4  -4 932.454 866.950   4
  -7   4   4-1617.46 814.194   4
  -7  -4  -4-1485.56 1239.65   2
  -7  -4   4-1200.06 1194.31   2
  -7  -4   4 1535.60 1020.43   5
  -8   4  -4 92108.8 6999.12   4
  -8   4   4 89040.9 5983.15   4
  -8  -4  -4 83820.3 7673.23   2
  -8  -4   4 79297.2 7601.87   2
  -9   4  -4 1844.70 1474.93   4
   3   4  -5 69333.1 3664.16   4
   2   4  -5 772.950 417.019   4
   2  -4   5 1263.45 312.318   3
   1  -4   5 84325.0 2960.01   3
   1   4  -5 85252.0 4381.69   4
   1   4   5 86209.3 3735.17   4
   0   4  -5 773.533 597.475   4
   0   4   5 646.036 465.237   4
   0  -4   5 668.998 350.330   3
   0   4   5 273.500 153.654   5
   0  -4  -5 1044.70 961.884   1
  -1  -4   5 86286.5 3593.46   3
  -1  -4  -5 83428.9 5515.08   1
  -1   4  -5 84179.4 4617.90   4
  -1   4   5 82443.7 3911.05   4
  -2   4  -5 17.2424 546.158   4
  -2   4   5 1275.28 540.890   4
  -2  -4  -5 685.859 668.884   6
  -2  -4   5 697.882 541.784   3
  -2  -4  -5 108.211 552.973   1
  -2  -4   5 351.997 425.263   5
  -2  -4   5 1117.88 722.389   6
  -3  -4  -5 64605.7 4285.00   6
  -3  -4   5 63659.1 4365.97   6
  -3   4   5 68163.7 2461.08   3
  -3  -4   5 62680.2 3761.37   5
  -3  -4  -5 69857.1 5079.63   1
  -3  -4  -5 73644.6 5175.70   2
  -3  -4   5 61294.3 4857.99   2
  -3   4  -5 66919.1 4459.10   4
  -3  -4   5 62250.2 2629.48   4
  -3   4   5 67610.9 3759.50   4
  -4   4  -5 1696.86 898.201   4
  -4  -4  -5-714.525 811.707   2
  -4  -4   5 274.590 634.886   2
  -4   4   5 443.624 584.477   4
  -4  -4  -5 728.440 668.726   6
  -4  -4   5 1009.38 777.149   6
  -4   4   5 157.807 221.349   3
  -4  -4   5 187.949 486.663   5
  -4  -4  -5-186.516 626.862   1
  -5  -4   5 58823.7 4300.85   5
  -5  -4  -5 63368.1 5119.27   1
  -5   4  -5 54498.8 4535.82   4
  -5  -4  -5 57968.9 5172.13   2
  -5  -4   5 58854.6 5327.55   2
  -5   4   5 59887.0 3985.61   4
  -6   4  -5 601.586 768.605   4
  -6  -4  -5-1513.20 1156.41   2
  -6  -4   5-788.120 961.659   2
  -6   4   5-250.940 597.661   4
  -6  -4  -5 1382.99 988.886   1
  -6  -4   5 1156.00 912.914   5
  -7  -4  -5 43003.2 5075.18   2
  -7  -4   5 35698.7 4683.27   2
  -7  -4   5 38818.0 4192.57   5
  -7  -4  -5 40400.6 4410.53   1
  -7   4  -5 42657.7 4529.61   4
  -7   4   5 36155.0 3500.96   4
  -8   4  -5 2066.80 1411.03   4
  -8   4   5-84.0906 526.864   4
  -8  -4  -5-165.983 973.412   2
  -8  -4   5-261.610 1040.27   2
  -9   4  -5 27043.9 4122.43   4
   2  -4   6 163166. 4757.43   3
   2   4  -6 173553. 6916.62   4
   1   4  -6 897.323 712.135   4
   1  -4   6 963.187 379.731   3
   0  -4   6 201674. 5836.88   3
   0   4   6 186142. 4801.15   5
   0  -4  -6 209792. 9133.50   1
   0   4  -6 190477. 7607.62   4
   0   4   6 202858. 6694.19   4
  -1   4  -6 1831.44 961.693   4
  -1   4   6 1119.80 737.104   4
  -1  -4  -6 1987.70 1298.87   1
  -1  -4   6 576.437 455.764   3
  -2  -4  -6 164199. 6924.36   6
  -2  -4   6 178048. 6125.80   3
  -2  -4   6 153242. 6805.00   6
  -2  -4   6 163003. 6268.08   5
  -2  -4  -6 175202. 8448.29   1
  -2   4  -6 161236. 7293.72   4
  -2   4   6 161436. 6208.97   4
  -3  -4   6 5663.25 1530.56   2
  -3   4  -6 7270.20 1613.91   4
  -3   4   6 6421.45 1198.09   4
  -3  -4  -6 5315.23 1385.09   6
  -3  -4   6 4530.31 1007.38   3
  -3  -4   6 7931.40 1582.23   6
  -3  -4   6 5756.19 1105.40   5
  -3   4   6 5742.88 732.152   3
  -3  -4  -6 5085.77 1516.86   1
  -4  -4  -6 162271. 7516.99   6
  -4  -4   6 160226. 7627.31   6
  -4   4   6 158184. 4884.77   3
  -4  -4   6 166689. 7025.32   5
  -4   4  -6 153820. 7756.03   4
  -4  -4  -6 149688. 8229.17   1
  -4  -4  -6 154566. 8255.57   2
  -4  -4   6 147259. 8354.44   2
  -4   4   6 155410. 6499.04   4
  -5   4  -6 1027.23 911.803   4
  -5  -4  -6 791.307 763.492   2
  -5  -4   6 2637.94 1336.50   2
  -5   4   6 1876.56 871.457   4
  -5  -4   6 855.494 762.271   5
  -5  -4  -6 212.396 768.654   1
  -6  -4   6 110123. 6639.89   5
  -6   4  -6 124657. 7720.15   4
  -6  -4  -6 126930. 7864.05   1
  -6  -4  -6 118552. 7989.25   2
  -6  -4   6 116063. 8120.04   2
  -6   4   6 105430. 5891.51   4
  -7   4  -6 2204.87 1533.90   4
  -7  -4  -6 3707.62 1707.20   2
  -7  -4   6-409.966 1076.92   2
  -7   4   6 1686.55 792.509   4
  -7  -4   6 2636.92 1303.53   5
  -7  -4  -6 3042.07 1414.49   1
  -8   4  -6 78769.0 6873.55   4
  -8  -4  -6 69637.0 7050.74   2
  -8  -4   6 83238.4 7796.08   2
  -8   4   6 81970.7 5711.50   4
   2  -4   7 5817.64 769.219   3
   2   4  -7 9346.07 1559.88   4
   1  -4   7 38494.7 2147.55   3
   1  -4  -7 37603.1 3845.44   1
   1   4  -7 39129.2 3313.19   4
   0   4  -7 4358.48 1223.17   4
   0   4   7 3084.06 494.391   5
   0  -4  -7 1713.86 993.520   1
   0  -4   7 2975.15 650.527   3
  -1  -4   7 42696.6 3216.18   6
  -1  -4  -7 38528.1 2947.95   6
  -1  -4   7 42041.8 2546.29   3
  -1  -4  -7 40627.7 3929.50   1
  -1   4  -7 41911.7 3575.03   4
  -1   4   7 38139.2 2781.22   4
  -2   4  -7 4929.01 1386.47   4
  -2   4   7 5686.61 1141.91   4
  -2  -4   7 5555.66 1232.47   6
  -2  -4  -7 4347.57 1083.59   6
  -2  -4   7 6466.90 1093.41   3
  -2  -4   7 5599.64 1168.84   5
  -2  -4  -7 4238.90 1472.88   1
  -3  -4   7 38728.3 2877.55   3
  -3  -4   7 34389.8 3147.09   6
  -3  -4  -7 34820.8 3095.63   6
  -3   4   7 34403.1 1992.51   3
  -3  -4   7 34800.0 2899.52   5
  -3   4  -7 37258.5 3635.73   4
  -3  -4  -7 32975.3 3698.14   1
  -3   4   7 32871.1 2701.76   4
  -4   4  -7 2319.78 1120.58   4
  -4  -4  -7 3276.63 1345.13   2
  -4  -4   7 4295.69 1591.96   2
  -4   4   7 3440.83 1034.99   4
  -4  -4   7 3269.91 1109.92   6
  -4  -4  -7 3744.13 1234.89   6
  -4   4   7 2837.07 594.628   3
  -4  -4   7 4508.10 1148.18   5
  -4  -4  -7 2916.45 1245.18   1
  -5   4  -7 32114.0 3782.85   4
  -5  -4   7 33222.9 4035.51   2
  -5  -4   7 39896.6 3579.37   5
  -5  -4  -7 36604.1 4119.28   2
  -5  -4  -7 34625.4 4022.58   1
  -5   4   7 38885.8 3226.84   4
  -6   4  -7 1464.59 1109.89   4
  -6  -4  -7 727.324 906.634   2
  -6  -4   7 1811.14 1245.83   2
  -6   4   7 1774.29 827.838   4
  -6  -4   7 981.383 950.909   5
  -6  -4  -7 1719.92 1328.82   1
  -7   4  -7 27241.2 3937.00   4
  -7  -4  -7 26808.7 4058.86   2
  -7  -4   7 22604.2 3800.35   2
  -7   4   7 21766.3 2762.59   4
  -7  -4   7 33236.9 3900.33   5
  -7  -4  -7 28710.7 3936.78   1
  -8   4  -7 3911.64 1957.06   4
  -8  -4  -7 2047.57 1739.11   2
  -8  -4   7 2689.60 1699.10   2
  -8   4   7 3048.81 1295.21   4
   2   4  -8 198310. 8570.85   4
   1  -4  -8 724.670 872.041   1
   1  -4   8 436.937 317.176   3
   1   4  -8-722.336 658.032   4
   0   4   8 217886. 6002.37   5
   0  -4  -8 235317. 10265.3   1
   0   4  -8 235637. 9522.01   4
   0  -4   8 231395. 6940.88   3
  -1   4  -8 898.990 706.878   4
  -1  -4   8 55.6026 401.632   6
  -1  -4   8 212.282 363.385   3
  -1  -4  -8 256.421 815.022   1
  -1  -4  -8-252.772 523.135   6
  -2  -4  -8 199087. 7576.62   6
  -2  -4   8 189490. 7643.66   6
  -2  -4   8 193530. 6894.38   3
  -2   4  -8 194070. 8979.52   4
  -2  -4  -8 205977. 9746.86   1
  -2   4   8 199297. 7421.73   4
  -3   4  -8 6206.23 1588.58   4
  -3   4   8 5970.82 1205.24   4
  -3  -4   8 7595.17 1438.50   6
  -3  -4  -8 7933.68 1506.97   6
  -3  -4   8 6083.72 1187.86   3
  -3  -4   8 7653.66 1437.95   5
  -3   4   8 7728.75 1010.14   3
  -3  -4  -8 10002.7 2131.00   1
  -4  -4   8 163383. 7010.97   3
  -4  -4   8 162664. 7264.32   5
  -4   4   8 159346. 5405.23   3
  -4   4  -8 143115. 8269.09   4
  -4  -4  -8 162446. 8506.57   2
  -4  -4   8 164166. 8764.75   2
  -4  -4  -8 166487. 9097.08   1
  -4   4   8 158697. 6860.96   4
  -5   4  -8 3387.94 1492.77   4
  -5  -4  -8 2926.62 1194.99   2
  -5  -4   8 3087.47 1424.03   2
  -5   4   8 1679.55 812.813   4
  -5  -4   8 3089.82 1080.32   5
  -5  -4  -8 1819.40 1359.82   1
  -6  -4   8 113945. 6913.97   5
  -6   4  -8 109746. 7825.89   4
  -6  -4  -8 105898. 7685.48   1
  -6  -4  -8 110453. 7818.77   2
  -6  -4   8 113507. 8161.66   2
  -6   4   8 115815. 6218.41   4
  -7   4  -8 443.941 1181.33   4
  -7  -4  -8-474.238 1043.67   2
  -7  -4   8 2563.83 1792.92   2
  -7   4   8 1239.22 807.081   4
  -7  -4   8 1908.52 1132.08   5
  -7  -4  -8 693.890 1164.49   1
  -8   4  -8 78853.7 7416.23   4
  -8  -4  -8 72436.4 7169.65   2
  -8  -4   8 65835.1 7052.61   2
  -8   4   8 72966.0 5444.00   4
   2   4  -9 3186.43 1275.30   4
   1  -4   9 103035. 4253.43   3
   1  -4  -9 96558.3 6430.48   1
   1   4  -9 99086.4 6176.15   4
   0  -4  -9 8145.72 1877.02   1
   0  -4   9 9303.12 1219.50   3
   0   4  -9 5823.87 1492.16   4
  -1  -4   9 91754.7 4810.42   6
  -1  -4   9 96053.8 4367.97   3
  -1   4  -9 85537.1 5866.92   4
  -1  -4  -9 93712.6 6403.79   1
  -1  -4  -9 84922.5 4503.20   6
  -2   4  -9 5897.52 1551.87   4
  -2   4   9 4354.59 1111.81   4
  -2  -4   9 3122.44 945.520   6
  -2  -4  -9 3965.59 1039.76   6
  -2  -4   9 1877.75 615.499   3
  -2  -4  -9 7359.97 1862.84   1
  -3  -4   9 78885.4 4400.25   3
  -3  -4   9 73745.7 4624.23   6
  -3  -4  -9 75551.8 4563.46   6
  -3   4   9 80076.9 3649.86   3
  -3  -4   9 75241.3 4627.93   5
  -3   4  -9 81188.2 5997.77   4
  -3  -4  -9 76391.7 6044.52   1
  -3   4   9 68877.6 4307.45   4
  -4   4  -9 3146.34 1296.24   4
  -4  -4  -9 1795.10 1034.70   2
  -4  -4   9 2973.20 1290.67   2
  -4   4   9 2227.99 955.816   4
  -4  -4   9 2844.42 991.904   3
  -4  -4   9 3983.03 1148.36   5
  -4   4   9 3976.02 855.291   3
  -4  -4  -9 1651.78 1045.19   1
  -5  -4   9 56218.0 4463.36   5
  -5   4  -9 59858.6 5600.76   4
  -5  -4  -9 60682.9 5300.94   2
  -5  -4   9 62091.0 5570.39   2
  -5  -4  -9 57607.1 5560.30   1
  -5   4   9 50796.1 3893.50   4
  -6   4  -9 3714.75 1621.93   4
  -6  -4  -9 3876.44 1821.11   2
  -6  -4   9 3520.12 1516.66   2
  -6   4   9 3582.00 1166.31   4
  -6  -4   9 3599.82 1378.46   5
  -6  -4  -9 3803.76 1734.73   1
  -7   4  -9 42306.1 5260.33   4
  -7  -4  -9 37923.8 4822.88   2
  -7  -4   9 37280.1 4912.64   2
  -7  -4   9 53349.9 5055.16   5
  -7  -4  -9 36484.8 4779.04   1
  -7   4   9 36103.6 3652.11   4
  -8  -4  -9 3135.84 1583.11   2
  -8   4   9 2586.35 1134.03   4
   2  -4 -10 118418. 7402.00   1
   1  -4 -10 8221.27 1977.13   1
   1  -4  10 5864.64 1060.86   3
   1   4 -10 7874.31 1870.54   4
   0   4 -10 112503. 7072.34   4
   0  -4 -10 122163. 7552.58   1
   0  -4  10 127842. 5169.91   3
  -1  -4  10 4909.50 1153.86   6
  -1  -4 -10 7245.11 1258.22   6
  -1  -4  10 5249.14 1042.82   3
  -1  -4 -10 5479.41 1709.34   1
  -1   4 -10 3817.44 1365.73   4
  -2  -4  10 110569. 5454.12   6
  -2  -4 -10 104998. 5202.56   6
  -2  -4  10 110152. 5185.48   3
  -2   4 -10 106674. 7007.99   4
  -2  -4 -10 119171. 7672.90   1
  -2   4  10 116105. 5789.89   4
  -3   4 -10 14.4818 816.063   4
  -3   4  10 385.449 562.336   4
  -3  -4  10 735.359 566.649   6
  -3  -4  10 1063.72 715.288   3
  -3  -4  10 1089.09 725.593   5
  -3   4  10 640.358 451.313   3
  -3  -4 -10 1020.94 768.896   6
  -3  -4 -10 1548.97 1310.95   1
  -4  -4  10 101197. 5638.41   3
  -4   4  10 107986. 4694.01   3
  -4  -4  10 104285. 5923.74   5
  -4   4 -10 100260. 7364.58   4
  -4  -4 -10 108320. 7663.51   1
  -4   4  10 106010. 5769.18   4
  -5   4 -10 11741.6 2667.08   4
  -5  -4 -10 7342.14 2004.73   2
  -5  -4  10 9381.82 2218.78   2
  -5   4  10 7173.43 1505.89   4
  -5  -4  10 11067.1 1932.21   3
  -5  -4  10 10974.5 2106.28   5
  -5  -4 -10 8776.94 2367.06   1
  -6  -4  10 89113.0 6288.14   5
  -6   4 -10 80223.6 7141.95   4
  -6  -4 -10 79638.3 6596.42   2
  -6  -4  10 69681.4 6387.06   2
  -6  -4 -10 90935.0 7487.18   1
  -6   4  10 88445.3 5559.87   4
  -7  -4 -10-1204.94 1172.21   2
  -7  -4  10 8.04070 933.067   2
  -7   4  10-45.4080 543.128   4
  -7  -4  10-1303.22 1104.44   5
  -7  -4 -10-279.469 1362.06   1
  -7   4 -10 2060.44 1710.25   4
   2  -4 -11 11.4151 846.432   1
   1  -4  11 36476.0 2672.12   3
   1  -4 -11 32710.3 4039.01   1
   1   4 -11 34667.8 4049.92   4
   0  -4 -11 219.627 449.362   6
   0  -4 -11 1726.21 1110.95   1
   0  -4  11 198.007 401.088   3
   0   4 -11 1094.40 988.685   4
  -1  -4  11 33122.1 2757.48   6
  -1  -4 -11 32801.9 2592.83   6
  -1  -4  11 34020.7 2725.64   3
  -1  -4 -11 38476.4 4292.32   1
  -1   4 -11 29264.3 3970.90   4
  -2  -4  11 235.281 517.129   6
  -2  -4 -11 1630.54 704.884   6
  -2  -4  11 2668.27 821.225   3
  -2  -4 -11 1342.56 1033.82   1
  -2   4 -11 1811.60 1137.71   4
  -3  -4  11 31703.0 2906.70   3
  -3  -4  11 27532.6 2731.03   6
  -3   4  11 32169.3 2503.84   3
  -3  -4  11 31934.9 3185.11   5
  -3  -4 -11 30883.0 4102.80   1
  -3   4  11 35632.4 3270.91   4
  -3   4 -11 35674.5 4364.79   4
  -4   4  11 2610.39 1085.15   4
  -4  -4  11 1455.85 853.618   3
  -4  -4  11 1529.40 940.054   5
  -4   4  11 167.429 390.720   3
  -4  -4 -11 1143.30 1059.83   1
  -4   4 -11 2239.32 1388.42   4
  -5  -4 -11 29457.5 3705.21   2
  -5  -4  11 28607.0 3800.60   2
  -5  -4  11 33236.8 3419.33   3
  -5  -4  11 35917.5 3705.33   5
  -5   4  11 31428.6 3215.62   4
  -5  -4 -11 30077.4 4258.91   1
  -5   4 -11 34746.4 4672.69   4
  -6  -4 -11 1017.83 896.508   2
  -6  -4  11 1841.54 1248.59   2
  -6   4  11-383.933 661.972   4
  -6  -4  11-103.315 708.086   5
  -6  -4 -11-418.126 1132.36   1
  -6   4 -11-1396.79 1208.71   4
  -7  -4  11 22515.7 3925.55   2
  -7   4  11 22268.6 2954.56   4
  -7  -4 -11 21647.7 3879.26   1
   2  -4 -12 126186. 8030.12   1
   1  -4 -12-676.640 840.863   1
   1  -4  12 126.487 447.393   3
   0  -4  12 130145. 5750.05   6
   0  -4  12 138262. 5923.72   3
   0   4 -12 137686. 8596.90   4
   0  -4 -12 131710. 8282.38   1
  -1  -4  12-282.365 424.468   6
  -1  -4  12-61.2410 504.124   3
  -1  -4 -12-350.695 821.466   1
  -1   4 -12-379.034 1020.79   4
  -2  -4  12 105004. 5247.66   6
  -2  -4  12 127082. 5985.62   3
  -2   4 -12 121699. 8261.73   4
  -2  -4 -12 121553. 8158.48   1
  -3   4  12 7364.10 1583.87   4
  -3  -4  12 3383.39 1075.92   3
  -3  -4  12 9537.43 1840.50   5
  -3   4  12 9448.57 1443.02   3
  -3  -4 -12 6214.88 2052.02   1
  -3   4 -12 8206.52 2207.80   4
  -4  -4  12 113146. 6239.22   3
  -4   4  12 106935. 5170.43   3
  -4  -4  12 98071.6 6169.11   5
  -4   4 -12 103127. 8105.22   4
  -4  -4 -12 102374. 7956.47   1
  -4   4  12 114142. 6342.62   4
  -5   4  12 1457.71 950.081   4
  -5  -4  12 1243.83 898.480   3
  -5  -4  12 1024.99 953.068   5
  -5  -4 -12 2578.00 1516.87   1
  -5   4 -12 3564.06 1802.69   4
  -6  -4  12 78733.9 6176.22   5
  -6   4 -12 77722.8 7591.04   4
  -6  -4 -12 88894.8 7840.43   1
  -6   4  12 85320.0 5760.96   4
   2  -4 -13 117.242 842.979   1
   1  -4  13 41900.6 3165.42   3
   1  -4 -13 43151.0 4834.92   1
   0  -4 -13 38.5950 1023.20   1
   0  -4  13-229.632 398.284   3
   0   4 -13 1236.88 1082.80   4
  -1  -4  13 37311.7 3121.70   3
  -1   4 -13 37175.6 4664.44   4
  -2  -4  13-164.266 607.034   3
  -2  -4 -13-202.442 831.055   1
  -2   4 -13 1551.32 1347.60   4
  -3  -4  13 39318.5 3491.20   3
  -3   4  13 38836.1 3026.51   3
  -3  -4  13 38509.1 3688.24   5
  -3  -4 -13 35844.0 4670.55   1
  -3   4  13 35566.6 3579.56   4
  -3   4 -13 37933.5 4864.39   4
  -4   4  13 669.263 671.407   4
  -4  -4  13 483.286 665.834   3
  -4  -4  13-855.131 864.216   5
  -4   4  13 90.6797 467.167   3
  -4  -4 -13 11.6181 805.891   1
  -5  -4  13 28561.2 3341.49   3
  -5  -4  13 32667.3 3736.73   5
  -5   4  13 34940.6 3616.89   4
  -5  -4 -13 37885.6 5149.48   1
  -5   4 -13 30865.9 4807.01   4
  -6   4  13 504.025 593.924   4
  -6  -4 -13 165.832 1152.17   1
   2  -4 -14 103970. 7652.26   1
   1  -4 -14 1321.69 1102.84   1
   1  -4  14 1193.54 731.634   3
   0  -4  14 115462. 5794.20   3
   0  -4 -14 106264. 7833.86   1
  -1  -4  14 789.357 630.735   3
  -1  -4 -14 1286.68 1120.71   1
  -1   4 -14 2086.59 1392.42   4
  -2  -4  14 95148.3 5581.61   3
  -2   4 -14 95589.1 7967.05   4
  -2  -4 -14 107099. 8085.31   1
  -3  -4  14 1907.77 898.217   3
  -3  -4  14 2127.07 934.172   5
  -3   4  14 4170.89 1075.03   3
  -3  -4 -14 2006.18 1349.42   1
  -3   4 -14 2883.12 1653.81   4
  -4  -4  14 96341.5 6054.62   3
  -4   4  14 91166.3 5152.17   3
  -4  -4  14 80460.6 5894.51   5
  -4   4 -14 87720.0 8046.47   4
  -4  -4 -14 97285.2 8147.20   1
  -4   4  14 88641.1 6009.18   4
  -5   4  14 3401.31 1306.69   4
  -5  -4  14 3721.16 1318.75   3
  -5  -4  14 2627.75 1279.76   5
  -5   4 -14 3739.55 1775.78   1
  -5  -4 -14 919.089 1075.56   1
  -5   4 -14 2914.63 1954.25   4
   2  -4 -15 1347.78 1196.68   1
   2  -4  15 742.090 720.473   3
   1   4 -15 24461.5 3084.82   1
   1  -4  15 24589.2 2640.31   3
   1  -4 -15 25989.4 3885.33   1
   0  -4  15 225.123 469.429   3
   0  -4 -15-438.073 972.237   1
  -1  -4  15 27172.7 2920.53   3
  -1  -4 -15 23506.3 3886.50   1
  -2  -4  15 151.646 693.460   3
  -2  -4 -15 31.0784 840.927   1
  -2   4 -15 194.111 954.320   4
  -3  -4  15 24770.5 2982.88   3
  -3  -4  15 27772.5 3393.02   5
  -3   4  15 24479.7 2636.64   3
  -3  -4 -15 28110.9 4388.74   1
  -3   4 -15 16950.4 3606.44   4
  -4   4 -15 196.450 803.673   1
  -4   4  15 2001.60 1274.27   4
  -4  -4  15-1170.53 946.409   3
  -4  -4  15 158.920 951.411   5
  -4  -4 -15 8.73219 937.592   1
  -4   4 -15-1199.75 1369.32   4
   2  -4  16 56879.2 4234.01   3
   2  -4 -16 54890.2 5806.66   1
   1   4 -16-30.9480 963.720   1
   1  -4 -16-860.429 1118.86   1
   1  -4  16-294.699 614.579   3
   0   4 -16 55039.7 5062.78   1
   0  -4  16 68124.7 4729.05   3
   0  -4 -16 62194.5 6276.39   1
  -1  -4  16 963.959 717.004   3
  -1  -4 -16 729.131 1008.42   1
  -1   4 -16-1351.35 1174.84   1
  -2   4 -16 53718.8 5475.19   1
  -2  -4  16 56071.4 4486.74   3
  -2  -4 -16 61974.4 6523.20   1
  -3   4 -16 4330.86 1800.81   1
  -3  -4  16 3010.41 1274.79   3
  -3  -4  16 2985.89 1390.64   5
  -3   4  16 919.707 621.623   3
  -3  -4 -16 6130.42 2251.67   1
  -3   4 -16 3521.57 2136.41   4
   2  -4 -17-922.411 1271.82   1
   2  -4  17-1145.14 833.883   3
   1  -4  17 29408.1 3179.16   3
   1  -4 -17 35551.3 4882.43   1
   0   4 -17 1759.47 1153.28   1
   0  -4 -17-820.385 1059.09   1
   0  -4  17 1060.24 753.349   3
  -1  -4  17 31152.6 3411.47   3
  -1   4 -17 30297.4 4084.09   1
  -1  -4 -17 33308.0 4790.12   1
  -2   4 -17 1051.73 1201.13   1
  -2  -4  17-670.618 766.575   3
  -2  -4 -17 562.603 1206.16   1
  -3   4  17 27929.0 3081.47   3
   2  -4  18 64807.6 4925.98   3
   1  -4 -18 3384.27 1858.51   1
   1  -4  18 1111.46 955.119   3
   0   4 -18 68488.8 6002.13   1
   0  -4  18 63982.0 4981.17   3
   0  -4 -18 58365.2 6458.78   1
  -1  -4  18 775.665 1011.61   3
  -1   4 -18-1217.58 1221.71   1
  -2   4  18 65866.5 4952.16   3
  -3   4  18-13.2197 853.409   3
   3   5   0-226.632 275.466   4
   2   5   0 102276. 4088.82   4
   1   5   0-249.291 494.105   4
   1  -5   0 37.5010 188.243   5
   0   5   0 100317. 3149.63   3
   0  -5   0 98041.0 3629.42   5
   0   5   0 102431. 4553.00   4
  -1   5   0 364.103 547.296   4
  -1  -5   0-93.4674 254.426   5
  -2  -5   0 108673. 5984.18   6
  -2  -5   0 105590. 4656.46   5
  -2   5   0 103444. 5069.76   4
  -3   5   0-231.775 634.764   4
  -3  -5   0 99.6776 822.085   6
  -3  -5   0-677.587 540.531   5
  -4  -5   0 82641.1 5647.10   6
  -4  -5   0 73776.6 4708.38   5
  -4  -5   0 77642.9 6203.95   2
  -4   5   0 80060.8 4878.54   4
  -5  -5   0-936.069 929.503   2
  -5   5   0-104.612 545.939   4
  -5  -5   0 837.398 874.558   6
  -6  -5   0 56117.5 5778.98   2
  -6   5   0 48353.1 4327.94   4
  -7   5   0-879.042 893.697   4
  -7  -5   0 20.9947 1303.20   2
  -8   5   0 33574.8 4034.53   4
   3   5  -1 107829. 3993.09   4
   3   5   1 104537. 3845.15   4
   2   5  -1 173.793 335.524   4
   2   5   1-585.683 354.000   4
   1  -5  -1 237205. 5939.56   5
   1   5  -1 247612. 7595.72   4
   1   5   1 244754. 7324.21   4
   0   5  -1 318.397 341.658   4
   0   5   1 461.335 329.378   4
   0   5   1-50.3487 181.944   3
   0  -5  -1 574.362 299.840   5
   0  -5   1 706.783 337.038   5
   0   5  -1 207.965 178.812   3
  -1   5   1 226059. 5023.13   3
  -1  -5  -1 237029. 7011.66   5
  -1  -5   1 240776. 7167.08   5
  -1   5  -1 240435. 8141.52   4
  -1   5   1 255973. 8003.76   4
  -2   5  -1 167.273 402.392   4
  -2   5   1 315.630 425.471   4
  -2  -5   1 300.566 614.048   6
  -2  -5  -1 171.313 565.002   6
  -2  -5  -1 63.0923 442.975   5
  -2  -5   1 722.220 420.116   5
  -3  -5   1 109833. 6294.25   6
  -3  -5  -1 101019. 6033.29   6
  -3  -5  -1 104985. 5223.35   5
  -3  -5   1 104238. 5106.51   5
  -3   5  -1 107879. 5510.62   4
  -3   5   1 102928. 5255.85   4
  -4  -5  -1-2012.51 1170.56   2
  -4  -5   1-1014.56 968.222   2
  -4  -5   1 752.364 706.802   6
  -4   5  -1 190.175 518.364   4
  -4   5   1-442.519 597.570   4
  -4  -5  -1 78.0090 634.366   6
  -4  -5   1 171.608 474.843   5
  -5  -5   1 201133. 9798.61   6
  -5  -5  -1 199704. 9698.34   6
  -5  -5   1 192775. 8746.97   5
  -5  -5  -1 189212. 10489.2   2
  -5  -5   1 180513. 10262.4   2
  -5   5  -1 203680. 8833.13   4
  -5   5   1 193509. 8472.53   4
  -6  -5  -1 220.344 968.656   2
  -6  -5   1-559.955 1177.63   2
  -6   5  -1 768.855 756.268   4
  -6   5   1 304.483 570.149   4
  -7   5  -1 67961.0 5512.99   4
  -7   5   1 69934.0 5424.95   4
  -7  -5  -1 75473.6 7202.90   2
  -7  -5   1 63294.0 6678.44   2
  -8   5  -1 607.758 911.128   4
  -8   5   1-1402.68 1027.06   4
   3   5  -2 411.120 296.305   4
   3   5   2 1219.10 419.174   4
   2   5  -2 56425.3 2998.85   4
   2   5   2 52139.2 2644.19   4
   1   5  -2 1732.83 612.367   4
   1   5   2 2839.63 685.523   4
   1  -5  -2 2324.22 373.622   5
   0  -5  -2 47581.0 2231.09   5
   0   5  -2 46184.5 1958.52   3
   0  -5   2 48620.0 2603.06   5
   0   5  -2 50824.2 3195.51   4
   0   5   2 43966.2 2769.41   4
  -1   5  -2 832.166 550.767   4
  -1   5   2 2571.81 743.371   4
  -1   5   2 1787.46 297.353   3
  -1  -5  -2 1246.45 466.505   5
  -1  -5   2 2079.92 634.083   5
  -2  -5   2 50565.6 3999.33   6
  -2  -5  -2 49382.0 3970.02   6
  -2  -5   2 52728.6 3180.64   5
  -2   5  -2 51822.3 3654.13   4
  -2   5   2 55006.2 3478.04   4
  -3   5  -2 731.978 684.675   4
  -3   5   2 2208.10 840.888   4
  -3  -5   2 1303.13 774.500   6
  -3  -5  -2 1244.09 910.404   6
  -3  -5   2 1623.98 702.748   5
  -4  -5   2 50677.9 4416.96   6
  -4  -5  -2 44007.3 4075.69   6
  -4  -5   2 48669.4 3678.58   5
  -4  -5  -2 46621.4 4747.72   2
  -4  -5   2 50757.0 4960.48   2
  -4   5  -2 54522.7 4168.42   4
  -4   5   2 46515.1 3568.41   4
  -5  -5  -2 1590.41 1186.20   2
  -5  -5   2-1368.12 1155.89   2
  -5   5  -2 1388.43 1016.62   4
  -5   5   2 1602.73 907.415   4
  -5  -5   2 2718.40 1295.16   6
  -5  -5  -2 1198.34 1011.31   6
  -5  -5   2-30.9702 533.620   5
  -6  -5  -2 36263.7 4708.17   2
  -6  -5   2 38187.2 4880.90   2
  -6   5  -2 35819.7 3849.76   4
  -6   5   2 40175.5 3805.85   4
  -7   5  -2-796.922 1035.65   4
  -7  -5  -2 170.742 1159.14   2
  -7  -5   2 1399.87 1375.65   2
  -7   5   2 946.532 1095.46   4
  -8   5  -2 22674.7 3437.25   4
  -8   5   2 31581.1 3836.64   4
   3   5  -3 141256. 5256.23   4
   3   5   3 147076. 4792.41   4
   2   5  -3 601.720 412.576   4
   2   5   3 422.921 301.213   4
   1   5  -3 299809. 9256.00   4
   1   5   3 307055. 8611.79   4
   0   5  -3 383.941 471.091   4
   0   5   3 1390.75 523.850   4
  -1  -5   3 288642. 8525.54   5
  -1   5  -3 292129. 9669.76   4
  -1   5   3 294638. 8979.23   4
  -2   5  -3-97.3629 634.054   4
  -2   5   3 542.245 554.402   4
  -2  -5  -3 854.295 661.764   6
  -2  -5   3 408.749 438.183   5
  -2   5   3 147.728 71.0195   3
  -2  -5   3 233.126 601.909   6
  -3  -5   3 146842. 7480.24   6
  -3  -5   3 140437. 6183.94   5
  -3   5  -3 139379. 6770.57   4
  -3   5   3 143046. 6276.14   4
  -4  -5  -3 107.856 954.970   2
  -4  -5   3 887.855 1077.60   2
  -4   5  -3 473.435 621.847   4
  -4   5   3 544.280 539.591   4
  -4  -5  -3-54.5791 645.247   1
  -4  -5   3-389.088 674.230   6
  -4  -5  -3 1073.21 824.255   6
  -4  -5   3 1188.60 705.943   5
  -5  -5   3 236566. 10771.4   6
  -5  -5  -3 226578. 10495.6   6
  -5  -5   3 232463. 9626.67   5
  -5  -5  -3 224986. 10732.8   1
  -5  -5  -3 224771. 11560.7   2
  -5  -5   3 223541. 11675.9   2
  -5   5  -3 244913. 10252.9   4
  -5   5   3 233290. 9277.23   4
  -6   5  -3 1446.12 1153.71   4
  -6  -5  -3 1427.17 1157.79   2
  -6  -5   3 557.327 966.050   2
  -6   5   3 941.512 780.359   4
  -6  -5  -3 670.843 921.700   1
  -6  -5   3 75.1330 894.913   5
  -7   5  -3 90281.8 6656.29   4
  -7  -5  -3 90947.3 7867.43   2
  -7  -5   3 98196.6 8293.15   2
  -7   5   3 90014.9 6160.91   4
  -8   5  -3 1261.83 1300.99   4
  -8   5   3 584.349 855.957   4
   3   5   4 270.963 335.726   4
   3   5  -4-171.495 313.744   4
   2   5  -4 75961.4 4023.70   4
   2   5   4 74198.3 3399.76   4
   1   5  -4-55.1733 445.961   4
   1   5   4 319.148 395.404   4
   0   5  -4 76470.4 4346.62   4
   0   5   4 79758.5 3842.22   4
  -1   5  -4-67.1775 518.396   4
  -1   5   4 403.285 437.785   4
  -1  -5   4 145.536 503.303   5
  -2  -5  -4 69575.8 4641.68   6
  -2  -5   4 73747.2 4837.02   6
  -2  -5   4 77905.0 4004.64   5
  -2   5  -4 66036.6 4338.87   4
  -2   5   4 76452.3 4064.81   4
  -3   5  -4 99.6801 555.088   4
  -3   5   4 443.992 520.907   4
  -3  -5  -4-377.857 719.249   1
  -3  -5   4 165.834 620.189   6
  -3  -5  -4 329.639 602.390   6
  -3  -5   4 628.968 661.108   5
  -4  -5   4 60999.3 4855.40   6
  -4  -5  -4 57799.6 4652.17   6
  -4  -5   4 61296.4 4189.44   5
  -4  -5  -4 56659.7 5038.47   1
  -4  -5  -4 58873.1 5330.20   2
  -4  -5   4 47190.7 4898.94   2
  -4   5  -4 55305.4 4436.66   4
  -4   5   4 50493.8 3754.12   4
  -5  -5  -4 3.24626 738.637   2
  -5  -5   4 327.284 846.558   2
  -5   5  -4 140.432 776.824   4
  -5   5   4 853.930 712.873   4
  -5  -5  -4-596.522 779.051   1
  -5  -5   4-505.009 1115.51   6
  -5  -5  -4 94.2211 865.162   6
  -5  -5   4 997.757 820.247   5
  -6  -5  -4 33475.0 4493.18   2
  -6  -5   4 42692.4 5146.52   2
  -6  -5   4 37993.2 3942.05   5
  -6  -5  -4 43768.3 4665.45   1
  -6   5  -4 42561.4 4345.33   4
  -6   5   4 40866.5 3783.70   4
  -7   5  -4 1295.59 1080.25   4
  -7  -5  -4-1536.06 1319.84   2
  -7  -5   4 2548.06 1651.36   2
  -7   5   4 159.115 905.809   4
  -7  -5   4 90.0545 763.166   5
  -8   5  -4 26102.0 3897.36   4
  -8   5   4 27888.8 3486.79   4
   3   5  -5 101890. 4892.43   4
   3   5   5 106231. 4181.43   4
   2   5  -5 628.029 493.444   4
   2   5   5 909.702 413.448   4
   2  -5   5 519.074 211.998   3
   1  -5   5 214336. 5781.92   3
   1   5  -5 216558. 8064.20   4
   1   5   5 217325. 7041.21   4
   0   5  -5 315.832 542.351   4
   0   5   5 320.669 467.958   4
   0  -5   5 131.791 233.539   3
  -1  -5   5 213802. 7348.27   5
  -1   5  -5 198758. 8174.98   4
  -1   5   5 212911. 7399.06   4
  -2   5  -5 1414.09 767.887   4
  -2   5   5 1323.89 662.244   4
  -2  -5  -5 632.426 763.991   1
  -2  -5   5 816.201 730.721   6
  -2  -5  -5 2564.33 1004.30   6
  -2  -5   5 1411.73 640.812   5
  -3  -5   5 107583. 6260.21   6
  -3  -5  -5 110808. 6227.94   6
  -3  -5   5 103856. 5259.87   5
  -3  -5  -5 108710. 7104.69   1
  -3   5  -5 101873. 6048.99   4
  -3   5   5 107117. 5312.65   4
  -4   5  -5 364.240 687.816   4
  -4   5   5 674.210 682.489   4
  -4  -5   5-125.661 655.588   6
  -4  -5  -5 975.489 829.552   6
  -4  -5  -5 1663.50 1070.48   1
  -4  -5   5 1493.14 841.912   5
  -5  -5   5 175075. 9017.03   6
  -5  -5  -5 161565. 8570.64   6
  -5  -5   5 173216. 8169.45   5
  -5  -5  -5 169236. 9448.17   1
  -5   5  -5 169043. 8875.89   4
  -5  -5  -5 158397. 9530.66   2
  -5  -5   5 161523. 9819.90   2
  -5   5   5 175901. 7803.72   4
  -6   5  -5-2.86579 659.650   4
  -6  -5  -5 1293.97 1206.95   2
  -6   5   5 77.6650 543.077   4
  -6  -5  -5 1034.91 988.147   1
  -6  -5   5 19.8707 628.302   5
  -7  -5   5 75639.8 6146.98   5
  -7   5  -5 71206.5 6198.83   4
  -7  -5  -5 58712.2 6437.21   2
  -7  -5   5 60584.7 6677.77   2
  -7   5   5 70308.7 5343.66   4
  -8   5   5 345.537 770.256   4
   4   5   6 46328.2 2622.54   4
   3   5   6 2769.98 688.185   4
   3   5  -6 2826.75 873.505   4
   2  -5   6 41654.2 1945.30   3
   2   5  -6 44577.7 3421.63   4
   2   5   6 43613.7 2747.13   4
   1   5  -6 2400.53 935.294   4
   1   5   6 2412.70 792.710   4
   1  -5   6 2450.45 540.130   3
   0  -5   6 43993.3 2468.91   3
   0   5  -6 47722.3 3756.50   4
   0   5   6 41054.8 2839.38   4
  -1   5  -6 2450.38 934.837   4
  -1   5   6 1680.61 688.584   4
  -1  -5  -6 2050.89 1087.76   1
  -1  -5   6 2638.53 745.329   3
  -2  -5   6 44949.8 3778.96   6
  -2  -5  -6 42163.9 3594.17   6
  -2  -5   6 48906.8 3335.43   5
  -2  -5  -6 42888.7 4408.52   1
  -2   5  -6 36710.3 3488.22   4
  -2   5   6 39215.1 3049.65   4
  -3   5  -6 2603.95 1147.71   4
  -3   5   6 2185.16 847.821   4
  -3  -5   6 3358.67 1214.85   6
  -3  -5  -6 2549.07 1055.52   6
  -3  -5  -6 1284.81 882.142   1
  -3  -5   6 943.195 682.579   5
  -4  -5   6 43305.7 4058.15   6
  -4  -5  -6 39076.0 3816.55   6
  -4  -5   6 40478.4 3487.82   5
  -4  -5  -6 34012.3 4056.51   1
  -4   5  -6 39366.4 4005.63   4
  -4   5   6 40035.5 3325.94   4
  -5  -5  -6-1202.28 1063.14   2
  -5  -5   6 711.262 1095.29   2
  -5   5  -6 1154.77 1088.85   4
  -5   5   6 548.437 636.908   4
  -5  -5  -6 56.3463 719.614   1
  -5  -5   6 3100.12 1159.87   5
  -6   5  -6 34417.2 4188.32   4
  -6  -5  -6 26399.8 4079.27   2
  -6  -5   6 36158.3 4839.47   2
  -6  -5   6 34969.3 3836.47   5
  -6  -5  -6 30987.0 4119.47   1
  -6   5   6 35603.3 3530.97   4
  -7   5  -6 1023.00 1328.92   4
  -7  -5  -6 1077.04 1295.31   2
  -7  -5   6-8.75074 836.268   2
  -7   5   6 525.876 659.108   4
  -7  -5  -6-764.527 1085.67   1
  -7  -5   6-1099.12 1026.99   5
  -8   5   6 25722.7 3433.97   4
   4   5   7 2372.32 641.612   4
   3   5  -7 107226. 5645.07   4
   3   5   7 111243. 4768.04   4
   2   5   7 2625.92 740.401   4
   2  -5   7 2369.09 515.545   3
   2   5  -7 1862.55 845.600   4
   1  -5   7 195396. 5913.98   3
   1   5  -7 196633. 8471.26   4
   1   5   7 203375. 7146.94   4
   0   5  -7 1005.17 699.261   4
   0   5   7 2154.18 824.719   4
   0  -5   7 604.027 375.099   3
  -1  -5   7 192719. 6636.95   3
  -1  -5  -7 215782. 10408.1   1
  -1   5  -7 191479. 8665.66   4
  -1   5   7 190872. 7264.40   4
  -2   5  -7 3664.43 1193.15   4
  -2   5   7 1915.01 853.135   4
  -2  -5   7 3302.73 1154.60   6
  -2  -5  -7 3646.13 1098.15   6
  -2  -5  -7 3954.56 1432.45   1
  -2  -5   7 3402.11 860.521   3
  -2  -5   7 1501.72 762.140   5
  -3  -5   7 112373. 6485.79   6
  -3  -5  -7 113098. 6265.93   6
  -3  -5   7 107377. 5632.11   5
  -3  -5  -7 120440. 7809.78   1
  -3   5  -7 109699. 6776.78   4
  -3   5   7 121936. 5898.76   4
  -4   5  -7 1515.56 986.071   4
  -4   5   7 865.363 661.636   4
  -4  -5   7 933.530 692.732   6
  -4  -5  -7 408.801 700.640   6
  -4  -5  -7 1395.42 1236.76   1
  -4  -5   7 540.823 688.629   5
  -5  -5   7 160157. 7998.60   5
  -5  -5  -7 158268. 9529.84   1
  -5   5  -7 165763. 9235.34   4
  -5  -5  -7 158944. 9490.78   2
  -5  -5   7 144855. 9352.41   2
  -5   5   7 165101. 7635.68   4
  -6   5  -7-464.936 821.334   4
  -6  -5  -7-187.067 879.724   2
  -6  -5   7 409.181 1049.02   2
  -6   5   7 1123.72 876.754   4
  -6  -5   7 1762.20 1104.92   5
  -6  -5  -7 1990.63 1378.56   1
  -7  -5   7 78944.4 6314.42   5
  -7  -5  -7 74656.5 6813.16   1
  -7   5  -7 68251.1 6487.98   4
  -7  -5  -7 73154.7 7117.82   2
  -7  -5   7 73460.8 7364.34   2
  -7   5   7 68447.6 5314.21   4
   2  -5   8 73803.8 3155.38   3
   2   5  -8 66191.8 4822.55   4
   1   5   8 1644.25 709.809   4
   1  -5   8 2194.15 621.970   3
   1   5  -8 305.193 666.652   4
   0  -5   8 88311.0 3971.50   3
   0  -5  -8 98682.3 7046.37   1
   0   5  -8 92258.0 5960.78   4
   0   5   8 88339.8 4690.24   4
  -1   5  -8 18.4355 598.160   4
  -1   5   8 2945.56 929.303   4
  -1  -5   8-124.889 507.974   6
  -1  -5  -8 391.354 638.703   6
  -1  -5  -8 3265.06 1463.60   1
  -1  -5   8 1391.63 548.460   3
  -2  -5   8 76627.3 5071.19   6
  -2  -5  -8 77835.1 4880.76   6
  -2  -5   8 78628.8 4245.64   3
  -2  -5   8 81038.8 4727.91   5
  -2  -5  -8 74473.9 6184.34   1
  -2   5  -8 74665.2 5583.31   4
  -2   5   8 76223.8 4504.97   4
  -3   5  -8 703.955 986.618   4
  -3   5   8 1571.35 793.493   4
  -3  -5   8 240.739 672.893   6
  -3  -5  -8 469.426 707.021   6
  -3  -5   8 929.341 629.707   3
  -3  -5  -8 2343.37 1333.55   1
  -3  -5   8 200.555 520.113   5
  -4  -5  -8 61429.8 4761.85   6
  -4  -5   8 63055.9 4905.93   6
  -4  -5   8 57014.3 4324.56   5
  -4  -5  -8 55344.9 5464.48   1
  -4   5  -8 66243.4 5637.31   4
  -4   5   8 65289.1 4480.99   4
  -5   5  -8 1208.81 883.513   4
  -5  -5  -8 795.484 933.968   2
  -5  -5   8-251.081 910.527   2
  -5   5   8 400.314 738.009   4
  -5  -5   8 240.050 709.112   5
  -5  -5  -8 1114.22 1093.38   1
  -6   5  -8 42576.0 4978.81   4
  -6  -5  -8 45904.4 5264.21   2
  -6  -5   8 38483.9 4988.33   2
  -6  -5   8 49597.3 4680.89   5
  -6  -5  -8 45636.9 5294.99   1
  -6   5   8 45645.6 4137.03   4
  -7   5  -8-926.840 1322.92   4
  -7  -5  -8 1819.95 1253.30   2
  -7  -5   8 1065.08 1342.63   2
  -7   5   8-285.596 781.732   4
  -7  -5  -8 446.548 1478.49   1
   2  -5   9 2640.00 650.229   3
   2   5  -9 3038.06 1067.51   4
   1  -5   9 144886. 5318.11   3
   1   5  -9 149734. 8002.71   4
   0  -5  -9 2948.26 1313.46   1
   0  -5   9 5765.75 982.318   3
   0   5  -9 6553.76 1634.41   4
  -1  -5   9 159807. 7327.21   6
  -1  -5  -9 141995. 6649.04   6
  -1  -5   9 150598. 5993.16   3
  -1  -5  -9 157012. 9215.21   1
  -1   5  -9 149622. 8240.40   4
  -1   5   9 154075. 6763.39   4
  -2   5  -9 1793.44 1180.96   4
  -2   5   9 2331.01 918.273   4
  -2  -5   9 2202.89 956.049   6
  -2  -5  -9 1485.65 794.305   6
  -2  -5   9 1641.28 621.270   3
  -2  -5  -9 1581.22 1048.19   1
  -2  -5   9 3793.66 1173.90   5
  -3  -5   9 95039.8 5158.55   3
  -3  -5   9 80533.8 5385.55   6
  -3  -5  -9 85737.0 5377.58   6
  -3  -5   9 92194.6 5433.70   5
  -3  -5  -9 98746.1 7361.38   1
  -3   5  -9 96157.3 6915.21   4
  -3   5   9 92734.5 5298.07   4
  -4   5  -9 3063.83 1417.55   4
  -4   5   9 1213.23 864.710   4
  -4  -5   9 2840.49 1094.25   6
  -4  -5  -9 3598.42 1197.20   6
  -4  -5   9 3705.21 1229.98   5
  -4  -5  -9 740.762 995.151   1
  -5  -5   9 124538. 7166.00   5
  -5   5  -9 113431. 8261.69   4
  -5  -5  -9 111754. 8345.60   1
  -5   5   9 113406. 6435.46   4
  -6   5  -9 2250.71 1455.01   4
  -6  -5  -9 633.743 1018.84   2
  -6  -5   9-738.910 1179.53   2
  -6   5   9 1815.23 958.849   4
  -6  -5   9 778.014 895.847   5
  -6  -5  -9-987.699 1287.12   1
  -7  -5  -9 55422.1 6106.65   2
  -7  -5   9 51582.3 6142.90   2
  -7  -5  -9 50935.7 5940.68   1
  -7   5   9 51672.9 4690.69   4
   2  -5  10 25616.1 2065.81   3
   2   5 -10 30956.4 3636.68   4
   1  -5 -10 203.631 801.198   1
   1  -5  10-485.582 416.941   3
   1   5 -10 1503.32 982.346   4
   0  -5  10 30596.3 2442.03   3
   0  -5 -10 32451.0 4181.21   1
   0   5 -10 37892.0 4118.79   4
  -1   5  10-665.970 609.579   4
  -1  -5  10-631.821 677.603   6
  -1  -5 -10-502.979 580.398   6
  -1  -5 -10 1076.47 967.529   1
  -1  -5  10 508.934 532.946   3
  -1   5 -10 898.001 1061.32   4
  -2   5 -10 29940.9 3791.58   4
  -2  -5  10 29497.8 3039.47   6
  -2  -5 -10 24644.9 2663.36   6
  -2  -5  10 30343.7 2729.89   3
  -2  -5  10 25244.9 2839.59   5
  -2  -5 -10 26696.7 3876.03   1
  -2   5  10 26209.6 2842.67   4
  -3   5 -10-472.947 912.628   4
  -3   5  10-460.147 851.909   4
  -3  -5  10 1123.70 778.352   6
  -3  -5 -10-957.764 735.464   6
  -3  -5  10 385.335 487.068   3
  -3  -5  10 668.003 648.360   5
  -3  -5 -10-62.7810 958.358   1
  -4   5 -10 27829.7 3954.80   4
  -4   5  10 26200.2 2935.90   4
  -4  -5  10 28032.8 2983.45   3
  -4  -5  10 27879.0 3222.16   6
  -4  -5  10 27151.5 3112.05   5
  -4  -5 -10 29616.7 4276.69   1
  -5   5 -10 2654.51 1541.45   4
  -5   5  10 66.3967 619.312   4
  -5  -5  10-156.297 687.427   5
  -5  -5 -10 2133.55 1321.09   1
  -6   5 -10 31693.7 4653.95   4
  -6  -5 -10 21172.9 3583.80   2
  -6  -5  10 19930.3 3692.23   2
  -6   5  10 25693.8 3185.39   4
  -6  -5  10 26548.6 3568.47   5
  -6  -5 -10 23196.5 4083.36   1
  -7  -5 -10-1233.77 1249.47   2
  -7  -5  10 1851.12 1447.94   2
  -7  -5 -10 2517.40 1594.12   1
   2  -5  11 1295.67 537.240   3
   1  -5  11 123899. 5281.15   3
   1  -5 -11 120973. 8414.26   1
   1   5 -11 129039. 8081.79   4
   0  -5 -11 47.6242 912.808   1
   0  -5  11 146.484 509.995   3
   0   5 -11 596.392 792.520   4
  -1  -5  11 120370. 6291.93   6
  -1  -5 -11 114432. 5789.01   6
  -1  -5  11 112867. 5461.25   3
  -1  -5 -11 131215. 8716.32   1
  -1   5 -11 138708. 8558.11   4
  -1   5  11 136554. 6715.69   4
  -2   5  11-1063.10 792.834   4
  -2  -5  11 2334.48 926.485   6
  -2  -5 -11 2282.79 869.759   6
  -2  -5  11 1851.63 851.233   3
  -2  -5 -11 1779.87 1515.50   1
  -2   5 -11 2067.44 1159.01   4
  -3  -5  11 93392.7 5386.76   3
  -3  -5  11 84662.6 5453.16   6
  -3  -5 -11 87448.7 5376.55   6
  -3  -5  11 100951. 5982.29   5
  -3   5 -11 97071.9 7467.67   4
  -3  -5 -11 86935.1 7321.21   1
  -3   5  11 97400.0 5803.31   4
  -4   5 -11 1263.36 1193.33   4
  -4   5  11 1426.08 821.867   4
  -4  -5  11-450.747 633.174   3
  -4  -5  11-29.5948 605.606   5
  -4  -5 -11 971.557 1089.13   1
  -5  -5  11 107092. 6896.26   5
  -5   5 -11 109898. 8632.36   4
  -5  -5 -11 94331.3 8070.05   1
  -5   5  11 99342.4 6243.44   4
  -6   5  11-1259.94 904.737   4
  -6  -5 -11 1146.27 1328.16   1
   2  -5  12 45651.9 3102.20   3
   1  -5 -12 1182.66 1264.19   1
   1  -5  12-365.931 446.824   3
   1   5 -12-757.242 928.033   4
   0  -5  12 51962.6 3506.53   3
   0  -5 -12 47151.6 5259.92   1
   0   5 -12 42388.9 4871.77   4
  -1   5  12 851.416 809.672   4
  -1  -5 -12 1137.22 1164.85   1
  -1  -5  12 870.546 603.421   3
  -1   5 -12 169.896 801.635   4
  -2  -5  12 36450.5 3219.54   3
  -2  -5 -12 47498.2 5380.20   1
  -2   5  12 41675.8 3815.23   4
  -2   5 -12 31712.5 4288.25   4
  -3   5  12 73.4272 593.923   4
  -3  -5  12 173.660 605.162   3
  -3  -5  12 490.587 637.433   5
  -3  -5 -12 1173.19 1244.60   1
  -3   5 -12 137.959 982.935   4
  -4  -5  12 35763.3 3600.63   3
  -4  -5  12 33859.9 3701.46   5
  -4  -5 -12 36907.8 4957.92   1
  -4   5  12 39850.1 3890.40   4
  -4   5 -12 37110.5 4993.28   4
  -5   5  12 994.019 980.126   4
  -5  -5  12 1103.28 937.165   3
  -5  -5  12 694.371 934.041   5
  -5  -5 -12-555.070 1139.34   1
  -5   5 -12-635.743 1082.16   4
   2  -5  13 1061.92 675.087   3
   1  -5  13 117944. 5625.56   3
   1  -5 -13 117453. 8636.56   1
   0  -5 -13-1706.62 1335.10   1
   0  -5  13 30.6968 503.844   3
   0   5 -13 1577.43 1332.81   4
  -1  -5  13 103168. 5599.81   3
  -1   5 -13 117760. 8600.07   4
  -1  -5 -13 117449. 8677.42   1
  -2   5  13 869.245 954.545   4
  -2  -5  13 1249.59 761.699   3
  -2  -5 -13-575.713 1041.87   1
  -2   5 -13 1545.93 1112.76   4
  -3  -5  13 94975.9 5788.74   3
  -3  -5  13 93068.6 6182.13   5
  -3   5 -13 82732.5 7506.36   4
  -3  -5 -13 87590.0 7794.35   1
  -3   5  13 103044. 6390.46   4
  -4   5  13 319.827 669.258   4
  -4  -5  13 186.770 554.661   3
  -4  -5  13 643.566 810.534   5
  -4  -5 -13 369.115 940.767   1
  -4   5 -13-2080.71 1501.53   4
  -5  -5  13 84578.2 6051.75   3
   1  -5 -14 2023.74 1328.72   1
   1  -5  14 188.533 481.089   3
   0  -5  14 25913.1 2715.64   3
   0  -5 -14 27704.2 4246.35   1
   0   5 -14 24193.4 3955.64   4
  -1  -5 -14 511.746 1080.64   1
  -1  -5  14 298.296 639.983   3
  -1   5 -14-1842.25 1426.32   4
  -2   5  14 22457.6 3001.60   4
  -2  -5  14 22739.6 2712.78   3
  -2  -5 -14 22939.3 4043.50   1
  -2   5 -14 15952.7 3417.78   4
  -3   5  14 94.6062 769.221   4
  -3  -5  14-504.803 733.526   3
  -3  -5  14-620.458 840.471   5
  -3  -5 -14 330.938 1089.59   1
  -3   5 -14-1130.27 1244.67   4
  -4   5  14 23540.9 3138.17   4
  -4  -5  14 23441.6 3072.96   3
  -4  -5 -14 22192.6 4149.03   1
   1  -5  15 57708.4 4153.30   3
   1  -5 -15 61229.5 6454.23   1
   0  -5 -15-1706.52 1401.37   1
   0  -5  15 3259.98 1077.33   3
  -1  -5  15 61765.9 4528.89   3
  -1  -5 -15 56851.8 6327.02   1
  -1   5 -15 58657.9 6497.29   4
  -2   5  15 633.683 631.591   4
  -2  -5  15 100.106 586.109   3
  -2  -5 -15 667.414 1135.37   1
  -2   5 -15-996.551 1253.16   4
  -3  -5  15 53767.8 4623.99   3
  -3  -5  15 61157.8 5272.25   5
  -3  -5 -15 70854.7 7274.41   1
  -3   5  15 63901.7 5349.63   4
  -3   5 -15 62637.3 7044.75   4
   1  -5 -16 990.438 1268.97   1
   1  -5  16 195.786 576.411   3
   0  -5  16 39545.6 3646.31   3
   0  -5 -16 34756.6 5006.30   1
  -1  -5 -16 98.9105 831.827   1
  -1  -5  16 648.800 761.972   3
  -2  -5  16 30540.6 3418.86   3
  -2   5 -16 22986.3 4213.20   4
   2  -5 -17 569.940 1276.75   1
   1  -5 -17 53152.1 6301.34   1
   1  -5  17 56086.9 4445.98   3
   0   5 -17 1122.76 1041.44   1
   0  -5 -17-2055.36 1657.17   1
   0  -5  17 303.083 809.671   3
  -1   5 -17 64795.7 6059.11   1
  -1  -5  17 50853.0 4435.52   3
   2  -6   0 143192. 4411.05   5
   2   6   0 150368. 5728.14   4
   1   6   0-742.704 532.492   4
   1  -6   0 69.1642 238.157   5
   0  -6   0 235952. 7047.81   5
   0   6   0 241236. 8368.87   4
  -1   6   0-345.325 593.429   4
  -1  -6   0 407.300 358.028   5
  -2  -6   0 143443. 7584.20   6
  -2  -6   0 138825. 5904.35   5
  -2   6   0 138184. 6534.23   4
  -3   6   0-174.648 493.217   4
  -3  -6   0 927.675 983.919   6
  -3  -6   0-124.467 487.737   5
  -4  -6   0 128929. 7821.25   6
  -4  -6   0 146718. 7220.31   5
  -4   6   0 138321. 7190.73   4
  -5   6   0 547.660 655.343   4
  -5  -6   0 1724.89 1159.95   6
  -6  -6   0 109946. 8889.68   2
  -6   6   0 117881. 7376.15   4
  -7  -6   0-1137.46 1292.82   2
  -7   6   0-1212.01 1094.82   4
   3   6   1 78050.2 3637.59   4
   2   6  -1 1164.83 519.525   4
   2   6   1 1250.62 582.810   4
   1  -6  -1 74670.9 2902.42   5
   1  -6   1 74856.8 3297.03   5
   1   6   1 79205.1 4073.47   4
   0   6  -1 3215.26 1046.42   4
   0   6   1 2545.96 796.375   4
   0  -6  -1 3391.54 706.629   5
   0  -6   1 3310.08 742.415   5
  -1  -6  -1 82200.1 3895.76   5
  -1  -6   1 80981.3 3973.49   5
  -1   6  -1 77852.7 4603.94   4
  -1   6   1 82837.0 4581.56   4
  -2   6  -1 1733.89 737.553   4
  -2   6   1 2750.66 986.786   4
  -2  -6   1 3258.75 1192.11   6
  -2  -6  -1 507.223 695.135   6
  -2  -6  -1 2367.87 913.967   5
  -2  -6   1 895.960 533.467   5
  -3  -6   1 82761.6 5878.17   6
  -3  -6  -1 78806.6 5701.23   6
  -3  -6  -1 75479.0 4639.43   5
  -3  -6   1 78051.8 4636.15   5
  -3   6  -1 87288.9 5339.96   4
  -3   6   1 72715.1 4790.78   4
  -4   6  -1 1245.68 880.555   4
  -4   6   1 1322.51 847.890   4
  -4  -6   1 1579.99 1219.01   6
  -4  -6   1 372.604 604.131   5
  -5  -6   1 68680.7 5808.82   6
  -5  -6  -1 56030.7 5271.75   6
  -5  -6   1 60747.7 4902.39   5
  -5   6  -1 58667.1 4842.46   4
  -5   6   1 52331.4 4509.37   4
  -6  -6  -1 1951.75 1591.50   2
  -6  -6   1 1550.43 1362.78   2
  -6   6  -1-1428.98 990.053   4
  -6   6   1 1744.18 1066.50   4
  -7  -6  -1 40022.2 5679.77   2
  -7  -6   1 30672.4 5009.58   2
  -7   6  -1 45731.7 4846.25   4
  -7   6   1 46405.0 4700.98   4
   3   6   2-26.3251 279.158   4
   2   6  -2 110114. 5080.50   4
   2   6   2 121147. 4910.64   4
   1   6  -2 116.492 383.754   4
   1   6   2-96.4433 368.230   4
   1  -6   2-90.3963 372.452   5
   0  -6  -2 201244. 5944.59   5
   0  -6   2 192750. 6398.16   5
   0   6  -2 184202. 7445.68   4
   0   6   2 191544. 7118.72   4
  -1   6  -2 138.934 506.514   4
  -1   6   2 249.665 433.742   4
  -1  -6  -2 883.191 501.487   5
  -1  -6   2 107.523 395.304   5
  -2  -6   2 108896. 6560.57   6
  -2  -6  -2 113133. 6649.41   6
  -2  -6   2 116385. 5388.91   5
  -2   6  -2 112176. 5992.81   4
  -2   6   2 113713. 5749.48   4
  -3   6  -2 656.894 533.465   4
  -3   6   2-164.400 537.761   4
  -3  -6   2 1423.27 935.608   6
  -3  -6  -2-253.390 727.700   6
  -3  -6   2-354.498 655.855   5
  -4  -6   2 122577. 7601.19   6
  -4  -6  -2 120029. 7452.60   6
  -4  -6   2 125232. 6578.16   5
  -4   6  -2 131379. 7167.72   4
  -4   6   2 134286. 6948.97   4
  -5   6  -2 80.2431 671.196   4
  -5   6   2-347.503 695.563   4
  -5  -6   2 945.197 1002.91   6
  -5  -6  -2 47.6406 939.118   6
  -5  -6   2 95.9998 779.487   5
  -6  -6  -2 93054.5 8136.55   2
  -6  -6   2 115074. 9048.51   2
  -6   6  -2 108878. 7272.82   4
  -6   6   2 118715. 7183.47   4
  -7  -6  -2-658.317 1162.99   2
  -7  -6   2-2424.39 1623.97   2
  -7   6  -2 265.783 847.364   4
  -7   6   2 102.479 815.868   4
   3   6   3 31380.0 2193.24   4
   2   6  -3 2689.23 855.741   4
   2   6   3 1860.10 640.332   4
   1   6  -3 26453.6 2520.49   4
   1   6   3 24233.9 2149.18   4
   0   6  -3 4238.06 1154.51   4
   0   6   3 2756.39 835.011   4
   0  -6   3 3021.20 787.980   5
  -1  -6   3 23398.1 2135.32   5
  -1   6  -3 24865.0 2651.40   4
  -1   6   3 24094.1 2377.41   4
  -2   6  -3 2745.35 1076.23   4
  -2   6   3 2620.85 978.609   4
  -2  -6   3 3253.04 1237.00   6
  -2  -6  -3 3165.19 1199.72   6
  -2  -6   3 3060.83 1015.65   5
  -3  -6  -3 30819.0 3514.16   6
  -3  -6   3 28483.9 3386.99   6
  -3  -6   3 34285.0 3043.37   5
  -3   6  -3 27343.0 3052.05   4
  -3   6   3 27696.6 2840.33   4
  -4   6  -3 3175.05 1300.66   4
  -4   6   3 1424.19 911.515   4
  -4  -6   3 1605.92 1211.16   6
  -4  -6  -3 1348.64 1189.34   6
  -4  -6   3 3139.64 1178.61   5
  -5   6  -3 23645.0 3209.81   4
  -5   6   3 22659.0 2869.19   4
  -5  -6   3 25800.3 3640.54   6
  -5  -6  -3 18738.1 3035.74   6
  -5  -6   3 18459.9 2661.25   5
  -6  -6  -3 1825.28 1381.67   2
  -6  -6   3 2553.66 1587.98   2
  -6   6  -3-146.882 871.793   4
  -6   6   3 118.724 614.324   4
  -6  -6   3 295.928 904.632   5
  -7  -6  -3 20066.7 4010.93   2
  -7   6  -3 24036.6 3649.08   4
  -7   6   3 20284.8 3133.61   4
   3   6   4 1864.48 618.848   4
   2   6  -4 180480. 7292.79   4
   2   6   4 187411. 6536.41   4
   1   6  -4 261.487 570.300   4
   1   6   4 243.773 366.599   4
   0  -6   4 277083. 8713.55   5
   0   6  -4 272645. 9924.08   4
   0   6   4 275388. 9015.93   4
  -1   6  -4 816.151 842.976   4
  -1   6   4 16.9402 583.035   4
  -1  -6   4-83.8641 454.048   5
  -2  -6   4 166046. 8427.81   6
  -2  -6  -4 180275. 8592.60   6
  -2  -6   4 179246. 7102.39   5
  -2   6  -4 188060. 8375.06   4
  -2   6   4 183441. 7451.26   4
  -3   6  -4 568.210 639.426   4
  -3   6   4 950.215 673.969   4
  -3  -6   4-1228.32 930.584   6
  -3  -6  -4 546.409 676.337   6
  -3  -6   4 734.538 576.958   5
  -4  -6   4 188783. 9569.16   6
  -4  -6  -4 165078. 8912.60   6
  -4  -6   4 186680. 8249.09   5
  -4   6  -4 168331. 8719.94   4
  -4   6   4 179059. 8082.01   4
  -5   6  -4 460.507 799.721   4
  -5   6   4-906.115 747.553   4
  -5  -6   4-1812.10 1192.95   6
  -5  -6  -4-785.759 910.675   6
  -5  -6   4-159.392 613.115   5
  -6  -6   4 143754. 8343.66   5
  -6  -6  -4 126917. 9545.97   2
  -6  -6   4 136668. 10005.1   2
  -6   6  -4 158418. 9123.99   4
  -6   6   4 137709. 7885.87   4
  -7   6  -4-242.037 952.055   4
  -7   6   4 409.278 836.689   4
   3   6   5 64903.5 3404.20   4
   2   6  -5 2028.73 809.303   4
   2   6   5 1202.96 607.745   4
   1   6  -5 68448.6 4544.79   4
   1   6   5 73846.6 3996.44   4
   0   6  -5 640.398 625.034   4
   0   6   5 1217.62 656.350   4
  -1  -6   5 74445.1 4157.87   5
  -1   6  -5 66491.8 4787.24   4
  -1   6   5 70942.6 4204.20   4
  -2   6  -5 1572.30 891.353   4
  -2   6   5 624.654 570.918   4
  -2  -6   5 1846.46 1028.06   6
  -2  -6  -5 1762.45 938.312   6
  -2  -6   5 1560.19 776.006   5
  -3  -6   5 67664.0 5312.12   6
  -3  -6  -5 70156.2 5274.53   6
  -3  -6   5 61266.2 4270.65   5
  -3   6  -5 72250.7 5305.00   4
  -3   6   5 64421.6 4406.83   4
  -4   6  -5 956.728 875.381   4
  -4   6   5 249.975 628.929   4
  -4  -6   5 3048.05 1348.27   6
  -4  -6  -5 1961.20 1065.78   6
  -4  -6   5 1785.56 903.542   5
  -5  -6   5 49359.1 4918.60   6
  -5  -6  -5 45510.8 4635.25   6
  -5  -6   5 46532.5 4257.36   5
  -5   6  -5 45986.0 4677.43   4
  -5   6   5 45812.5 4102.89   4
  -6  -6  -5-70.6284 1019.75   2
  -6  -6   5 1170.81 1307.65   2
  -6   6  -5 290.572 897.834   4
  -6   6   5 369.975 741.636   4
  -6  -6   5 355.789 844.749   5
   3   6   6 1253.98 576.228   4
   2   6  -6 91109.6 5425.06   4
   2   6   6 94656.9 4523.32   4
   1   6  -6 1454.43 872.038   4
   1   6   6 536.167 508.213   4
   0   6  -6 157749. 7654.29   4
   0   6   6 151666. 6369.82   4
  -1   6  -6 1504.74 862.873   4
  -1   6   6 498.259 443.559   4
  -1  -6   6 428.422 489.270   5
  -2  -6   6 105739. 6460.44   6
  -2  -6  -6 83913.7 5658.25   6
  -2  -6   6 87578.5 4954.72   5
  -2   6  -6 97707.3 6175.50   4
  -2   6   6 90041.8 5090.67   4
  -3   6  -6 1380.33 778.901   4
  -3   6   6-86.6242 463.959   4
  -3  -6  -6 2449.21 1369.93   1
  -3  -6   6 1337.20 1052.77   6
  -3  -6  -6 534.616 688.078   6
  -3  -6   6 1433.29 744.202   5
  -4  -6   6 99139.6 6780.67   6
  -4  -6  -6 92772.4 6418.46   6
  -4  -6   6 91452.4 5778.32   5
  -4  -6  -6 99264.1 7699.92   1
  -4   6  -6 92767.0 6599.45   4
  -4   6   6 104331. 6017.70   4
  -5   6  -6 4173.29 1707.94   4
  -5   6   6 2584.17 1138.12   4
  -5  -6  -6 640.945 997.523   1
  -5  -6   6 2153.04 1317.45   6
  -5  -6  -6 1055.56 925.625   6
  -5  -6   6 4713.02 1527.50   5
  -6  -6   6 82266.9 6270.51   5
  -6  -6  -6 94076.6 7814.42   1
  -6   6  -6 78798.9 6780.72   4
  -6   6   6 89959.1 6218.44   4
   3   6   7 48556.1 3121.96   4
   2   6   7 663.589 565.889   4
   2   6  -7 1605.80 848.411   4
   1   6  -7 38065.0 3748.18   4
   1   6   7 48333.5 3297.87   4
   0   6  -7 80.7561 613.096   4
   0   6   7 759.014 621.851   4
   0  -6   7-179.729 319.463   3
  -1  -6  -7 38923.1 3701.56   6
  -1  -6   7 47708.7 3573.21   5
  -1   6  -7 49727.5 4361.84   4
  -1   6   7 44653.3 3456.29   4
  -2   6  -7 781.309 794.416   4
  -2   6   7 281.512 625.851   4
  -2  -6  -7 759.836 1009.90   1
  -2  -6   7-798.196 755.111   6
  -2  -6  -7-121.737 623.718   6
  -2  -6   7 457.822 815.891   5
  -3  -6   7 49189.8 4561.85   6
  -3  -6  -7 45025.5 4162.48   6
  -3  -6  -7 41137.1 4911.87   1
  -3  -6   7 47312.9 3805.04   5
  -3   6  -7 42014.0 4366.78   4
  -3   6   7 49213.8 3873.30   4
  -4   6  -7 187.766 792.282   4
  -4   6   7-256.339 452.984   4
  -4  -6  -7 976.290 1186.30   1
  -4  -6   7 347.228 971.858   6
  -4  -6  -7-184.331 750.486   6
  -4  -6   7 104.928 628.254   5
  -5   6  -7 34999.3 4356.36   4
  -5  -6  -7 38726.3 4967.46   1
  -5  -6   7 38769.1 4390.18   6
  -5  -6  -7 29771.5 3757.57   6
  -5  -6   7 35551.0 3836.12   5
  -5   6   7 30429.7 3431.41   4
  -6   6  -7 1529.47 1172.71   4
  -6   6   7 142.050 685.105   4
  -6  -6  -7-8.13063 878.173   1
  -6  -6   7-89.0340 785.125   5
   3   6   8 1030.70 596.136   4
   2   6  -8 100763. 6325.92   4
   2   6   8 111877. 5307.92   4
   1   6  -8-389.639 745.882   4
   1   6   8 1010.67 628.218   4
   0  -6   8 145460. 5604.43   3
   0   6  -8 146610. 8114.43   4
   0   6   8 153785. 6722.94   4
  -1   6  -8 1865.84 1077.35   4
  -1   6   8 1832.05 860.087   4
  -1  -6   8 699.910 766.038   6
  -1  -6  -8 913.851 642.680   6
  -1  -6   8 1005.30 572.438   3
  -1  -6   8 572.037 633.411   5
  -2  -6   8 105695. 6573.23   6
  -2  -6  -8 102985. 6235.58   6
  -2  -6   8 93846.8 5467.22   5
  -2  -6  -8 105982. 8026.65   1
  -2   6  -8 119568. 7450.51   4
  -2   6   8 108387. 5795.05   4
  -3   6  -8 1578.78 1091.28   4
  -3   6   8 1518.53 721.254   4
  -3  -6  -8 4355.85 1796.42   1
  -3  -6   8 1605.95 1029.78   6
  -3  -6  -8 2397.85 1081.40   6
  -3  -6   8 608.440 645.933   5
  -4  -6   8 95522.7 6681.41   6
  -4  -6  -8 97053.5 6531.11   6
  -4  -6   8 109815. 6476.41   5
  -4  -6  -8 101129. 8063.35   1
  -4   6  -8 92184.5 7093.95   4
  -4   6   8 97132.4 5987.46   4
  -5   6   8 1270.08 865.509   4
  -5  -6   8 1956.46 1103.49   6
  -5  -6  -8 3271.94 1768.29   1
  -5  -6   8 220.072 603.300   5
  -6  -6  -8 79523.7 7495.62   1
  -6   6   8 85305.6 6129.11   4
  -7  -6  -8-1419.30 1550.08   1
   3   6   9 44952.9 3275.28   4
   2   6   9-461.700 479.231   4
   2   6  -9 639.333 823.060   4
   1   6  -9 52760.9 4763.54   4
   1   6   9 48191.2 3601.33   4
   0   6  -9-231.566 732.765   4
   0   6   9 539.465 630.128   4
   0  -6   9 662.394 454.698   3
  -1  -6   9 48484.9 4298.89   6
  -1  -6  -9 46408.3 4014.61   6
  -1  -6   9 50820.2 3398.35   3
  -1  -6  -9 58228.7 5929.38   1
  -1   6  -9 47259.0 4746.99   4
  -1   6   9 47785.9 3765.09   4
  -2   6  -9-21.2358 775.870   4
  -2   6   9-433.084 613.097   4
  -2  -6  -9-1169.35 1179.04   1
  -2  -6   9-1076.53 862.259   6
  -2  -6  -9-448.552 608.791   6
  -2  -6   9-299.640 501.007   3
  -2  -6   9 923.585 665.610   5
  -3   6  -9 39898.1 4626.31   4
  -3  -6   9 43115.1 4273.96   6
  -3  -6  -9 41138.3 3957.80   6
  -3  -6  -9 42830.7 5255.67   1
  -3  -6   9 42486.5 3822.29   5
  -3   6   9 43694.6 3822.50   4
  -4   6  -9-1185.29 1164.67   4
  -4   6   9 361.257 619.161   4
  -4  -6   9 29.9955 711.102   6
  -4  -6  -9 138.309 629.156   6
  -4  -6  -9-1128.12 1302.79   1
  -4  -6   9 2317.94 1036.75   5
  -5   6  -9 40052.9 4987.94   4
  -5  -6  -9 27238.9 4487.59   1
  -5  -6   9 28891.0 3554.21   5
  -5   6   9 34824.0 3702.93   4
  -6  -6  -9 170.528 1061.45   1
   3   6  10 3598.78 1000.48   4
   2   6 -10 104176. 7020.64   4
   2   6  10 103685. 5493.69   4
   1   6  10 752.813 807.533   4
   1   6 -10-819.611 910.975   4
   0  -6  10 131934. 5609.13   3
   0   6 -10 120794. 7907.69   4
   0   6  10 132799. 6604.83   4
  -1   6 -10 1088.21 932.435   4
  -1   6  10 881.620 728.857   4
  -1  -6 -10-85.7849 993.584   1
  -1  -6  10 898.089 669.550   6
  -1  -6 -10-356.931 584.189   6
  -1  -6  10-116.786 351.223   3
  -2  -6  10 95049.4 6309.45   6
  -2  -6 -10 105415. 6225.16   6
  -2  -6  10 108523. 5643.19   3
  -2  -6  10 105497. 6155.83   5
  -2  -6 -10 109687. 8519.25   1
  -2   6 -10 109888. 7807.44   4
  -2   6  10 106907. 6095.21   4
  -3   6 -10 3274.64 1572.83   4
  -3   6  10 4955.60 1423.30   4
  -3  -6  10 3789.89 1360.04   6
  -3  -6 -10 7546.93 1735.92   6
  -3  -6 -10 2577.88 1576.11   1
  -3  -6  10 4214.27 1255.50   5
  -4  -6  10 98289.0 6734.75   6
  -4  -6 -10 91343.2 6277.79   6
  -4  -6  10 96816.8 6412.30   5
  -4  -6 -10 103696. 8516.93   1
  -4   6 -10 94565.8 7745.57   4
  -4   6  10 115463. 6737.14   4
  -5   6 -10 340.838 983.057   4
  -5   6  10-20.0429 733.894   4
  -5  -6 -10 1310.10 1418.16   1
  -5  -6  10-984.914 894.398   5
   3   6  11 24699.0 2615.43   4
   2   6  11-660.571 635.566   4
   1   6  11 30597.5 3110.76   4
   1   6 -11 30067.0 4031.82   4
   0   6  11 152.535 650.489   4
   0  -6  11 1063.13 670.910   3
  -1  -6 -11 28793.3 3133.70   6
  -1  -6  11 29584.6 2797.04   3
  -1  -6 -11 34464.0 4811.11   1
  -1  -6  11 31801.1 3491.78   6
  -1   6  11 36722.2 3514.91   4
  -1   6 -11 28931.4 3941.82   4
  -2   6 -11 890.769 1042.52   4
  -2   6  11 485.240 794.615   4
  -2  -6  11-144.519 647.995   6
  -2  -6 -11 1401.96 821.143   6
  -2  -6 -11-194.864 1082.53   1
  -2  -6  11 1491.00 765.765   3
  -2  -6  11-333.762 714.883   5
  -3   6 -11 27048.6 4083.62   4
  -3  -6  11 29473.4 3095.44   3
  -3  -6  11 30735.2 3532.63   6
  -3  -6 -11 26069.6 3134.00   6
  -3  -6 -11 25223.8 4264.29   1
  -3  -6  11 27200.9 3225.13   5
  -3   6  11 30632.3 3413.87   4
  -4   6 -11 779.645 899.347   4
  -4   6  11 244.128 658.032   4
  -4  -6  11 218.704 842.976   6
  -4  -6 -11 2520.93 1079.06   6
  -4  -6 -11 481.393 1099.71   1
  -4  -6  11 1045.03 1033.98   5
  -5  -6 -11 23955.1 4410.27   1
   2   6  12 95329.7 5667.86   4
   1   6  12 752.579 547.806   4
   1   6 -12 2085.78 1276.43   4
   0  -6  12 95524.8 5057.82   3
   0  -6 -12 104718. 8545.91   1
   0   6 -12 96785.4 7672.40   4
   0   6  12 97792.7 5972.33   4
  -1   6  12 1450.84 728.342   4
  -1  -6 -12 3864.68 2025.25   1
  -1  -6  12 1914.90 829.085   3
  -1   6 -12 574.029 1027.46   4
  -2  -6  12 86897.6 5263.57   3
  -2  -6  12 77844.0 5717.95   5
  -2  -6 -12 84434.2 7793.60   1
  -2   6 -12 79434.3 7223.88   4
  -2   6  12 92015.3 5973.88   4
  -3   6  12 121.433 715.119   4
  -3  -6 -12-835.672 1120.01   1
  -3  -6  12-714.403 685.787   3
  -3  -6  12 1747.56 1061.57   5
  -4  -6 -12 62757.0 7034.11   1
  -4   6  12 74217.4 5639.38   4
  -4   6 -12 58511.9 6539.98   4
   1   6  13 27938.9 3201.45   4
   1   6 -13 27182.2 3987.05   4
   0   6  13 322.413 856.073   4
   0  -6 -13 937.490 1525.86   1
   0   6 -13 1210.05 1249.58   4
  -1  -6  13 28897.8 2929.30   3
  -1  -6 -13 31108.8 4806.85   1
  -1   6  13 32702.6 3574.22   4
  -1   6 -13 27086.1 4304.39   4
  -2   6  13 229.491 648.289   4
  -2  -6 -13 796.648 1418.33   1
  -2  -6  13 863.941 717.161   3
  -2  -6  13 3112.34 1412.01   5
  -2   6 -13 2676.38 1578.73   4
  -3   6  13 26587.6 3341.23   4
  -3  -6 -13 21311.9 4064.38   1
  -3  -6  13 26785.6 3150.88   3
  -3  -6  13 23531.9 3185.67   5
  -3   6 -13 16739.5 3529.90   4
  -4  -6  13 1008.08 885.123   3
   0  -6 -14 70670.7 7313.36   1
   0   6 -14 75292.1 7299.55   4
   0   6  14 68700.4 5278.03   4
  -1   6  14 440.636 833.462   4
  -1  -6 -14-251.328 1072.32   1
  -1  -6  14 30.7903 777.201   3
  -1   6 -14 610.626 1089.32   4
  -2  -6  14 63241.9 4785.36   3
  -2  -6 -14 66964.6 7239.21   1
  -2  -6  14 67332.1 5524.29   5
  -2   6  14 67256.2 5448.12   4
  -2   6 -14 55322.6 6484.97   4
  -3  -6  14 2105.13 1070.80   3
   0   6  15 1217.17 976.708   4
   0  -6 -15-1103.41 1430.11   1
   0   6 -15-1300.71 1349.63   4
  -1  -6  15 28455.4 3138.02   3
  -1   6 -15 29724.4 4835.29   4
  -2  -6  15 121.156 615.639   3
  -1  -6  16 615.082 832.798   3
   2   7   0 66641.1 4026.37   4
   1   7   0-16.8205 557.170   4
   0   7   0 57139.6 4022.19   4
  -1   7   0-674.899 661.607   4
  -1  -7   0 739.414 529.044   5
  -2  -7   0 58272.7 5124.19   6
  -2  -7   0 62977.5 4036.73   5
  -2   7   0 68518.9 4832.46   4
  -3   7   0 1068.19 1039.96   4
  -3  -7   0 46.0744 816.757   6
  -3  -7   0 1696.27 878.937   5
  -4  -7   0 42528.6 4696.20   6
  -4   7   0 51218.1 4557.31   4
  -5   7   0-2718.91 1239.33   4
  -5  -7   0-75.6246 1065.23   6
  -6   7   0 29892.7 3935.94   4
  -6  -7   0 42840.5 5156.06   6
   2   7  -1 14.4662 559.703   4
   2   7   1 126.500 489.378   4
   1   7  -1 117335. 5859.69   4
   1   7   1 117354. 5718.46   4
   0   7  -1-559.044 580.496   4
   0   7   1 79.9490 627.331   4
   0  -7   1 206.888 427.288   5
  -1  -7  -1 125906. 5371.07   5
  -1  -7   1 122744. 5452.01   5
  -1   7  -1 125488. 6490.90   4
  -1   7   1 118393. 6211.24   4
  -2   7  -1 49.6524 570.059   4
  -2   7   1 1656.65 790.539   4
  -2  -7   1 731.070 767.082   6
  -2  -7  -1 2331.22 1187.81   6
  -2  -7  -1 281.268 501.353   5
  -2  -7   1-243.848 579.884   5
  -3  -7   1 139574. 8369.37   6
  -3  -7  -1 126594. 7946.63   6
  -3  -7   1 152092. 7153.35   5
  -3   7  -1 146400. 7723.40   4
  -3   7   1 135649. 7322.45   4
  -4   7  -1-427.439 747.193   4
  -4   7   1-388.109 669.440   4
  -4  -7   1 869.014 931.752   6
  -4  -7  -1-1544.12 1116.64   6
  -4  -7   1 123.343 752.500   5
  -5  -7   1 60912.5 5908.45   6
  -5  -7  -1 66915.5 6151.20   6
  -5   7  -1 67028.3 5676.45   4
  -5   7   1 78716.5 5929.31   4
  -6   7  -1 1744.16 1197.07   4
  -6   7   1-1255.92 1048.65   4
  -6  -7   1-2016.01 1445.14   6
  -6  -7  -1-711.718 1210.53   6
   2   7  -2 46606.3 3514.13   4
   2   7   2 49046.6 3328.61   4
   1   7  -2-716.168 643.324   4
   1   7   2 956.302 715.300   4
   0  -7   2 43954.8 2914.17   5
   0   7  -2 49307.2 3840.79   4
   0   7   2 44029.2 3433.02   4
  -1   7  -2 1991.51 938.533   4
  -1   7   2 1163.89 785.959   4
  -1  -7   2 1471.53 725.603   5
  -2  -7   2 53884.5 4890.12   6
  -2  -7  -2 49527.7 4699.96   6
  -2  -7   2 46005.5 3508.13   5
  -2   7  -2 57295.0 4522.89   4
  -2   7   2 46026.4 3919.76   4
  -3   7  -2 237.446 720.130   4
  -3   7   2 551.343 824.334   4
  -3  -7   2 630.088 826.464   6
  -3  -7  -2 1478.02 850.812   6
  -3  -7   2 681.161 828.859   5
  -4  -7  -2 51176.3 5068.31   6
  -4  -7   2 40247.7 4592.20   6
  -4  -7   2 43244.3 3995.98   5
  -4   7  -2 47052.4 4527.27   4
  -4   7   2 37880.2 3906.83   4
  -5   7  -2-1678.79 1110.29   4
  -5   7   2 1631.63 1310.01   4
  -5  -7   2 647.133 879.976   6
  -5  -7  -2-244.960 756.098   6
  -5  -7   2-647.210 815.594   5
   2   7  -3-804.104 643.948   4
   2   7   3 1583.00 659.117   4
   1  -7   3 151546. 5844.83   5
   1   7  -3 152978. 7107.49   4
   1   7   3 156086. 6612.87   4
   0   7  -3 558.563 622.709   4
   0  -7   3 1173.00 473.689   5
  -1  -7   3 145919. 6265.18   5
  -1   7  -3 160307. 7790.12   4
  -1   7   3 147733. 6938.51   4
  -2   7  -3 958.958 795.525   4
  -2   7   3-416.826 644.757   4
  -2  -7   3-1678.06 1111.53   6
  -2  -7  -3 42.4145 758.716   6
  -2  -7   3-791.795 624.045   5
  -3  -7   3 165334. 9286.99   6
  -3  -7  -3 174777. 9441.49   6
  -3  -7   3 176012. 7953.89   5
  -3   7  -3 179823. 9013.84   4
  -3   7   3 189536. 8595.42   4
  -4   7  -3 1329.88 1082.67   4
  -4   7   3-52.1882 626.780   4
  -4  -7   3 1845.86 1131.62   6
  -4  -7  -3-1170.47 984.552   6
  -4  -7   3-1320.38 797.675   5
  -5  -7   3 96934.1 7454.90   6
  -5  -7  -3 88110.7 7089.13   6
  -5  -7   3 87767.4 6304.28   5
  -5   7  -3 102134. 7234.12   4
  -5   7   3 87191.2 6294.67   4
  -6  -7   3 568.614 1039.18   5
   2   7   4 40773.3 3030.80   4
   1   7  -4-184.687 556.001   4
   1   7   4 1375.14 646.225   4
   1  -7   4 1928.19 808.756   5
   0  -7   4 32568.4 2636.25   5
   0   7  -4 35977.4 3473.77   4
   0   7   4 33467.5 2978.85   4
  -1   7  -4 118.369 671.018   4
  -1   7   4 1110.29 733.933   4
  -1  -7   4 1036.73 665.876   5
  -2  -7   4 36942.7 4071.56   6
  -2  -7  -4 39424.8 4136.30   6
  -2  -7   4 38086.5 3253.41   5
  -2   7  -4 41284.9 4027.07   4
  -2   7   4 35681.5 3363.86   4
  -3   7  -4 2394.93 1184.57   4
  -3   7   4 23.1633 720.626   4
  -3  -7   4 295.773 811.120   6
  -3  -7  -4 698.209 821.983   6
  -3  -7   4 1346.06 796.710   5
  -4  -7   4 32614.2 4187.98   6
  -4  -7  -4 26599.3 3626.31   6
  -4  -7   4 32145.2 3453.51   5
  -4   7  -4 39332.7 4284.00   4
  -4   7   4 34027.9 3651.01   4
  -5   7  -4-196.480 921.666   4
  -5   7   4-403.268 653.263   4
  -5  -7   4 1418.63 1261.83   6
  -5  -7  -4-281.809 964.529   6
  -5  -7   4 178.713 701.410   5
  -6  -7   4 27853.7 3813.51   5
   2   7   5 2671.64 862.730   4
   1   7  -5 109786. 6310.92   4
   1   7   5 111586. 5522.55   4
   0   7  -5 28.5039 604.501   4
   0   7   5 272.159 457.290   4
   0  -7   5 270.505 418.941   5
  -1  -7   5 119713. 5810.48   5
  -1   7  -5 122967. 7078.20   4
  -1   7   5 113882. 6025.47   4
  -2   7  -5 3227.46 1319.97   4
  -2   7   5 1159.24 723.456   4
  -2  -7   5 2370.91 1263.30   6
  -2  -7  -5 1853.27 974.014   6
  -2  -7   5 618.433 607.561   5
  -3  -7   5 135013. 8307.27   6
  -3  -7  -5 131580. 8084.30   6
  -3  -7   5 122256. 6650.27   5
  -3   7  -5 138484. 8115.70   4
  -3   7   5 136960. 7208.67   4
  -4   7  -5 192.860 759.724   4
  -4   7   5 1408.82 968.993   4
  -4  -7   5 1610.89 1169.26   6
  -4  -7  -5 311.114 851.170   6
  -4  -7   5 133.261 557.387   5
  -5  -7   5 68410.9 6309.63   6
  -5  -7  -5 66704.4 6048.57   6
  -5  -7   5 73978.1 5747.75   5
  -5   7  -5 68211.0 6181.62   4
  -5   7   5 70514.9 5585.23   4
   2   7   6 52822.5 3589.89   4
   1   7  -6 351.209 607.608   4
   1   7   6 154.319 608.780   4
   0  -7   6 44457.8 3423.48   5
   0   7  -6 43714.0 4141.68   4
   0   7   6 42292.3 3425.80   4
  -1   7  -6 584.689 809.366   4
  -1   7   6 314.566 700.962   4
  -1  -7   6 1071.68 686.523   5
  -2  -7   6 41356.6 4366.56   6
  -2  -7  -6 42129.4 4277.45   6
  -2  -7   6 40009.5 3489.57   5
  -2   7  -6 50924.3 4749.79   4
  -2   7   6 48711.4 3965.60   4
  -3   7  -6-513.250 810.500   4
  -3   7   6 510.676 795.443   4
  -3  -7   6 1238.64 1267.22   6
  -3  -7  -6 1025.22 870.262   6
  -3  -7   6 603.682 745.470   5
  -4   7  -6 40511.0 4620.56   4
  -4  -7   6 33803.1 4247.02   6
  -4  -7  -6 32690.9 4056.47   6
  -4  -7   6 40479.6 3979.23   5
  -4   7   6 39301.9 3936.08   4
  -5   7  -6 153.899 824.451   4
  -5   7   6-31.7753 732.892   4
  -5  -7   6-456.311 1165.44   6
  -5  -7  -6 506.956 884.450   6
  -5  -7   6 714.138 786.754   5
   2   7   7 546.176 587.087   4
   1   7  -7 110610. 6899.25   4
   1   7   7 109624. 5622.41   4
   0   7  -7 4006.15 1407.07   4
   0   7   7 3481.05 1076.05   4
   0  -7   7 2855.29 963.232   5
  -1  -7   7 101235. 6893.04   6
  -1  -7  -7 107167. 6783.63   6
  -1  -7   7 102639. 5677.66   5
  -1   7  -7 110708. 7218.35   4
  -1   7   7 111253. 6022.35   4
  -2   7  -7 1125.16 926.594   4
  -2   7   7 1275.12 801.044   4
  -2  -7   7 1996.69 942.913   6
  -2  -7  -7 854.542 893.683   6
  -2  -7   7 295.810 591.438   5
  -3  -7   7 120901. 7883.54   6
  -3  -7  -7 121659. 7618.35   6
  -3  -7   7 119243. 6716.22   5
  -3   7  -7 116229. 7887.04   4
  -3   7   7 128851. 7038.45   4
  -4   7  -7 1101.00 1077.04   4
  -4   7   7 1457.58 985.552   4
  -4  -7   7-710.648 1022.86   6
  -4  -7  -7 23.7795 702.853   6
  -4  -7   7 813.607 780.665   5
  -5  -7   7 66395.1 6207.62   6
  -5  -7  -7 59643.7 5718.87   6
  -5  -7   7 70879.0 5731.36   5
   2   7   8 41706.3 3315.00   4
   1   7  -8 1401.37 965.139   4
   1   7   8 171.859 575.648   4
   0   7  -8 38956.4 4269.61   4
   0   7   8 39477.7 3468.06   4
  -1   7  -8 382.403 806.357   4
  -1   7   8-854.189 688.188   4
  -1  -7   8 631.333 752.024   6
  -1  -7  -8 584.390 702.054   6
  -1  -7   8-24.3973 534.357   5
  -2  -7   8 46834.8 4730.47   6
  -2  -7  -8 44669.8 4419.53   6
  -2  -7   8 43870.6 3864.40   5
  -2   7  -8 44059.8 4780.63   4
  -2   7   8 42423.2 3831.65   4
  -3   7  -8-1306.80 1186.97   4
  -3   7   8 516.294 679.647   4
  -3  -7   8 619.937 1108.24   6
  -3  -7  -8 690.492 815.983   6
  -3  -7   8 245.205 619.258   5
  -4   7  -8 32763.4 4441.74   4
  -4   7   8 28907.2 3414.82   4
  -4  -7   8 33478.3 4251.77   6
  -4  -7  -8 24974.7 3515.39   6
  -4  -7   8 31151.6 3615.29   5
  -5  -7   8 1722.18 1218.79   6
  -5  -7  -8 2223.13 1309.58   6
   2   7   9 2291.99 882.569   4
   1   7  -9 79278.1 6285.41   4
   1   7   9 93459.9 5352.75   4
   0   7  -9 2234.33 1228.62   4
   0   7   9 2400.59 950.673   4
  -1  -7   9 87736.2 6398.01   6
  -1  -7  -9 76604.3 5646.78   6
  -1  -7   9 83187.1 5428.90   5
  -1   7  -9 88019.9 6918.71   4
  -1   7   9 90416.2 5597.78   4
  -2   7  -9 2994.78 1403.57   4
  -2   7   9 289.554 562.716   4
  -2  -7   9 763.785 900.651   6
  -2  -7  -9 1082.34 950.757   6
  -2  -7   9 674.245 721.946   5
  -3  -7   9 95691.5 7019.39   6
  -3  -7  -9 106055. 6977.60   6
  -3  -7   9 98273.8 6317.39   5
  -3   7  -9 90968.4 7565.40   4
  -3   7   9 101250. 6441.03   4
  -4   7  -9 724.342 1167.62   4
  -4   7   9 123.081 614.528   4
  -4  -7  -9 1298.44 1167.20   1
  -4  -7   9 1911.60 1356.93   6
  -4  -7  -9 1248.21 1053.94   6
  -4  -7   9-134.627 906.325   5
  -5  -7   9 55894.1 5637.54   6
   2   7  10 39779.0 3452.56   4
   1   7  10-69.5857 543.830   4
   1   7 -10-496.427 916.771   4
   0   7  10 36393.3 3480.29   4
   0   7 -10 30992.8 4150.12   4
  -1   7 -10-871.971 1121.81   4
  -1   7  10 999.205 741.034   4
  -1  -7  10-1166.90 1038.01   6
  -1  -7 -10 352.629 760.446   6
  -1  -7  10 747.435 722.344   5
  -2   7 -10 31829.7 4420.04   4
  -2  -7  10 36976.5 4202.34   6
  -2  -7 -10 34030.8 3788.46   6
  -2  -7  10 39421.9 3857.76   5
  -2   7  10 37052.7 3706.53   4
  -3   7 -10-191.657 977.638   4
  -3   7  10 312.109 661.241   4
  -3  -7 -10-156.146 1144.99   1
  -3  -7  10 2156.90 1321.78   6
  -3  -7 -10 1422.11 1063.24   6
  -3  -7  10 511.360 729.338   5
  -4  -7  10 25309.3 3695.06   6
  -4  -7 -10 27821.0 3619.07   6
   2   7  11 1216.42 810.116   4
   1   7 -11 71145.8 6455.58   4
   1   7  11 74666.9 5064.89   4
   0   7  11 2115.32 1039.35   4
   0  -7  11 1480.22 1113.34   6
   0  -7 -11-569.893 817.358   6
   0   7 -11 599.670 959.467   4
  -1  -7  11 78322.4 6131.33   6
  -1  -7 -11 73627.3 5513.55   6
  -1  -7  11 80724.0 5706.38   5
  -1   7 -11 70979.2 6689.68   4
  -1   7  11 86036.3 5747.78   4
  -2   7 -11 4006.58 1773.78   4
  -2   7  11 3938.72 1394.70   4
  -2  -7  11 1783.41 1157.36   6
  -2  -7 -11 2500.58 1128.97   6
  -2  -7  11 1975.53 1090.86   5
  -3  -7  11 85703.2 6540.33   6
  -3  -7  11 82289.7 6035.47   5
  -3   7 -11 81337.0 7499.75   4
   2   7  12 22074.1 2746.51   4
   1   7  12 421.558 667.699   4
   0   7  12 25367.0 3099.33   4
   0   7 -12 21904.9 3829.77   4
  -1   7  12-128.927 678.939   4
  -1  -7  12 1433.82 965.090   5
  -1   7 -12-1663.40 1443.33   4
  -2  -7  12 21222.3 3041.14   5
  -2   7 -12 19273.1 3762.88   4
   2   7  13 1086.28 787.584   4
   1   7  13 75865.2 5498.80   4
   0   7  13 1861.50 961.311   4
   0   7 -13 2765.33 1592.20   4
  -1   7 -13 87629.3 8028.06   4
   2   7  14 18445.5 2704.93   4
   0   7 -14 25357.7 4387.13   4
   1   8   0 1293.74 795.533   4
   0   8   0 71768.1 5014.52   4
  -1   8   0 71.3258 593.027   4
  -2  -8   0 134368. 8586.80   6
  -2   8   0 142041. 7777.06   4
  -3   8   0 553.459 843.499   4
  -3  -8   0-619.683 789.932   6
  -4  -8   0 71883.4 6540.35   6
  -4   8   0 82827.2 6358.39   4
   1   8  -1 52014.6 4116.42   4
   1   8   1 45798.1 3788.48   4
   0   8  -1 695.827 888.564   4
   0   8   1-291.079 567.906   4
  -1   8  -1 46243.0 4205.50   4
  -1   8   1 49775.4 4252.38   4
  -2   8  -1-263.742 746.442   4
  -2   8   1 677.240 1025.57   4
  -2  -8   1 230.918 896.140   6
  -2  -8  -1 2393.56 1249.41   6
  -3  -8   1 37988.3 4651.35   6
  -3  -8  -1 33095.6 4323.19   6
  -3  -8   1 39659.9 3783.61   5
  -3   8  -1 37363.5 4100.06   4
  -3   8   1 44303.0 4363.18   4
  -4   8  -1 934.222 956.486   4
  -4   8   1 946.314 1059.31   4
  -4  -8   1 53.7760 745.409   6
  -4  -8  -1-1840.42 1284.12   6
  -4  -8   1 167.526 765.238   5
   1   8  -2-1378.11 879.562   4
   1   8   2-1063.77 734.899   4
   0   8  -2 68478.9 5062.64   4
   0   8   2 73371.8 4971.16   4
  -1   8  -2-1838.61 962.152   4
  -1   8   2 231.684 733.544   4
  -2  -8   2 130288. 8518.91   6
  -2  -8  -2 124437. 8272.95   6
  -2  -8   2 139720. 6846.76   5
  -2   8  -2 136566. 7909.94   4
  -2   8   2 148589. 7937.66   4
  -3   8  -2-196.912 775.150   4
  -3   8   2-5.15558 646.136   4
  -3  -8   2 313.497 1104.10   6
  -3  -8  -2 93.1229 791.943   6
  -3  -8   2-303.107 701.188   5
  -4  -8   2 95800.4 7576.19   6
  -4  -8  -2 88926.6 7290.94   6
  -4  -8   2 94523.8 6437.93   5
  -4   8  -2 92635.0 6975.30   4
  -4   8   2 102693. 7005.78   4
   1   8  -3 38732.7 3693.98   4
   1   8   3 38591.9 3423.50   4
   0   8  -3-502.586 729.957   4
   0   8   3 715.848 711.430   4
  -1   8  -3 32865.9 3705.47   4
  -1   8   3 36314.8 3623.96   4
  -2   8  -3-129.218 793.329   4
  -2   8   3 928.017 676.939   4
  -2  -8   3 1019.88 1035.26   6
  -2  -8  -3 1510.16 1259.17   6
  -2  -8   3 495.847 772.134   5
  -3   8  -3 29385.9 3784.30   4
  -3   8   3 30998.0 3622.01   4
  -3  -8   3 28021.3 3977.11   6
  -3  -8  -3 32199.5 4191.02   6
  -3  -8   3 31241.5 3379.52   5
  -4   8  -3 748.070 1007.68   4
  -4   8   3-327.091 912.493   4
  -4  -8   3 2470.43 1486.96   6
  -4  -8  -3 2370.93 1533.00   6
  -4  -8   3 630.939 740.897   5
  -5  -8   3 25405.2 3584.92   5
   1   8  -4 228.059 717.590   4
   1   8   4 128.902 628.117   4
   0   8  -4 78238.9 5700.30   4
   0   8   4 77727.0 5103.62   4
  -1   8  -4 508.987 740.612   4
  -1   8   4 806.218 722.336   4
  -1  -8   4-450.948 557.355   5
  -2  -8   4 128255. 8458.03   6
  -2  -8  -4 139583. 8677.29   6
  -2  -8   4 141618. 7065.04   5
  -2   8  -4 132088. 8068.48   4
  -2   8   4 142957. 7685.41   4
  -3   8  -4 496.712 846.656   4
  -3   8   4 1280.36 1074.09   4
  -3  -8   4 486.195 908.026   6
  -3  -8  -4-2304.63 1303.50   6
  -3  -8   4 1456.71 887.644   5
  -4  -8   4 92848.2 7535.49   6
  -4  -8  -4 99713.1 7619.58   6
  -4  -8   4 87966.4 6230.53   5
  -4   8  -4 93949.1 7229.89   4
  -4   8   4 85958.7 6442.40   4
  -5  -8   4 409.661 825.087   5
   1   8   5 41325.7 3560.52   4
   0   8  -5-758.325 837.950   4
   0   8   5 815.972 825.032   4
  -1  -8   5 36074.9 4360.20   6
  -1  -8  -5 38621.1 4392.81   6
  -1  -8   5 37650.4 3362.18   5
  -1   8  -5 45772.3 4560.42   4
  -1   8   5 38327.7 3707.65   4
  -2   8  -5-1202.20 1025.35   4
  -2   8   5-211.330 628.476   4
  -2  -8   5 440.341 944.940   6
  -2  -8  -5-1414.17 1064.40   6
  -2  -8   5 326.284 503.279   5
  -3   8  -5 31858.2 4124.01   4
  -3  -8   5 28353.6 4035.07   6
  -3  -8  -5 38018.0 4538.80   6
  -3  -8   5 36903.7 3726.49   5
  -3   8   5 42227.1 4204.18   4
  -4  -8   5-556.441 901.250   6
  -4  -8  -5 1382.87 1208.83   6
  -4  -8   5 930.728 901.012   5
   1   8   6 167.829 443.054   4
   0  -8   6 61905.0 4270.84   5
   0   8  -6 61369.7 5359.35   4
   0   8   6 64044.4 4677.79   4
  -1   8  -6 138.797 792.360   4
  -1   8   6 117.077 552.432   4
  -1  -8   6 54.1016 1000.50   6
  -1  -8  -6 1740.30 1145.19   6
  -1  -8   6 341.963 502.927   5
  -2  -8   6 108875. 7825.08   6
  -2  -8  -6 104758. 7471.31   6
  -2  -8   6 116342. 6582.68   5
  -2   8  -6 122714. 8129.99   4
  -2   8   6 123575. 7109.48   4
  -3   8  -6 1078.61 1066.99   4
  -3   8   6 1587.92 1058.97   4
  -3  -8   6-948.106 1142.94   6
  -3  -8  -6 425.488 1098.93   6
  -3  -8   6-1308.28 897.763   5
  -4  -8   6 75706.1 6813.70   6
  -4  -8  -6 85921.8 7012.22   6
  -4  -8   6 79263.9 6019.70   5
   1   8   7 30552.6 3111.99   4
   0   8  -7 2145.15 1176.78   4
   0   8   7-531.009 603.082   4
   0  -8   7 897.964 694.799   5
  -1   8  -7 31240.3 4029.74   4
  -1   8   7 28192.3 3203.17   4
  -1  -8   7 25871.3 3734.48   6
  -1  -8  -7 26163.4 3617.07   6
  -1  -8   7 23886.7 2834.19   5
  -2   8  -7-681.120 1002.64   4
  -2   8   7 223.761 771.550   4
  -2  -8   7 634.173 1029.92   6
  -2  -8   7 1583.93 938.298   5
  -3   8  -7 22066.2 3661.84   4
  -3   8   7 23033.6 3155.95   4
  -3  -8   7 24935.0 3729.51   6
  -3  -8  -7 26913.9 3782.91   6
  -3  -8   7 26611.6 3308.52   5
  -4  -8   7 2509.42 1244.86   5
   1   8   8 1284.98 718.483   4
   0  -8   8 72399.1 4989.07   5
   0   8  -8 71685.9 6225.31   4
   0   8   8 77188.8 5266.87   4
  -1   8  -8 972.905 1113.68   4
  -1   8   8 673.797 681.540   4
  -1  -8   8 159.820 977.176   6
  -1  -8  -8-76.6710 790.449   6
  -1  -8   8 970.649 890.352   5
  -2  -8   8 104573. 7777.06   6
  -2  -8  -8 99114.2 7176.14   6
  -2  -8   8 114729. 6740.91   5
  -2   8  -8 106787. 8087.41   4
  -2   8   8 108737. 6804.95   4
  -3  -8   8 325.894 901.363   6
  -3  -8  -8 1378.75 1191.09   6
  -3  -8   8 1301.02 835.080   5
   1   8   9 42735.4 3815.18   4
   0   8  -9-350.076 1009.62   4
   0   8   9 164.227 614.556   4
   0  -8   9 2445.79 1044.86   5
  -1   8  -9 37488.0 4775.31   4
  -1  -8  -9 43501.0 4565.78   6
  -1  -8   9 37484.7 4580.15   6
  -1  -8   9 42080.2 3996.96   5
  -1   8   9 45558.4 4220.56   4
  -2   8  -9 1545.48 1228.65   4
  -2  -8   9 150.090 963.100   6
  -2  -8  -9-839.254 921.296   6
  -2  -8   9 444.715 798.876   5
  -3  -8   9 32210.0 4312.61   6
  -3  -8  -9 37881.1 4457.04   6
   1   8  10 1290.96 973.307   4
   0  -8  10 56900.1 5676.22   6
   0  -8 -10 39551.6 4364.90   6
   0  -8  10 60012.4 4852.68   5
   0   8  10 52049.2 4458.80   4
   0   8 -10 51636.2 5672.65   4
  -1   8 -10 1197.90 1164.68   4
  -1   8  10-134.923 513.056   4
  -1  -8  10-746.285 1234.29   6
  -1  -8 -10 1242.10 1255.16   6
  -1  -8  10 1148.34 904.907   5
  -2  -8  10 69657.0 6297.65   6
  -2  -8 -10 67865.5 5843.84   6
  -2  -8  10 69544.9 5469.85   5
  -3  -8  10-291.912 1019.10   6
  -3  -8 -10 1495.25 1111.30   6
   1   8  11 20023.8 2754.28   4
   0   8  11-280.406 694.717   4
   0  -8  11-702.542 832.485   5
   0   8 -11 656.116 1183.21   4
  -1   8 -11 20300.6 3837.81   4
   0   9   0 59936.5 4981.52   4
  -1   9   0 114.905 946.790   4
  -1  -9   0-7.27836 709.512   6
  -2   9   0 50128.5 4932.54   4
   0   9  -1-1913.82 1126.17   4
   0   9   1-34.1687 826.959   4
  -1  -9   1 85286.6 7187.35   6
  -1  -9  -1 76240.1 6883.75   6
  -1   9  -1 84550.3 6289.98   4
  -1   9   1 84791.1 6175.88   4
  -2   9  -1-713.405 959.203   4
  -2   9   1-1108.75 950.960   4
   0   9  -2 27974.0 3505.60   4
   0   9   2 33413.1 3647.76   4
  -1   9  -2 676.040 873.908   4
  -1   9   2-1149.41 980.494   4
  -1  -9   2-1687.23 1298.96   6
  -1  -9  -2-1569.61 1237.97   6
  -2   9  -2 25547.2 3586.58   4
  -2   9   2 21564.8 3163.24   4
   0   9  -3-1208.33 1035.87   4
   0   9   3-21.6023 749.097   4
  -1   9  -3 93314.3 6830.35   4
  -1   9   3 96361.4 6507.57   4
  -2   9  -3 336.037 746.488   4
  -2   9   3 1579.71 1196.79   4
   0   9  -4 30965.8 3867.49   4
   0   9   4 36484.9 3780.25   4
  -1   9  -4-789.052 1002.49   4
  -1   9   4-1569.13 1057.52   4
  -2   9  -4 26220.5 3799.22   4
   0   9   5 838.922 714.907   4
  -1   9  -5 64807.5 6026.28   4
  -1   9   5 86810.5 6147.27   4
   0   9   6 32498.1 3618.83   4
  -1   9  -6-453.315 939.854   4
  -1   9   6-505.451 825.715   4
   0   9   7 2186.24 1037.54   4
  -1   9  -7 77871.4 6925.66   4
   0   0   0    0.00    0.00   0
;
_shelx_hkl_checksum              10577
loop_
_space_group_symop_operation_xyz
'x, y, z'
'-x+1/2, -y, z+1/2'
'x, -y, -z'
'-x+1/2, y, -z+1/2'
'-x, -y, -z'
'x-1/2, y, -z-1/2'
'-x, y, z'
'x-1/2, -y, z-1/2'
loop_
_atom_site_label
_atom_site_type_symbol
_atom_site_fract_x
_atom_site_fract_y
_atom_site_fract_z
_atom_site_U_iso_or_equiv
_atom_site_adp_type
_atom_site_occupancy
_atom_site_site_symmetry_order
_atom_site_calc_flag
_atom_site_refinement_flags_posn
_atom_site_refinement_flags_adp
_atom_site_refinement_flags_occupancy
Pt Pt 0.5000 0.0000 0.5000 0.00701(9) Uani 1 4 d S T P
Fe Fe 1.0000 0.5000 0.5000 0.00752(18) Uani 1 4 d S T P
N1 N 1.0000 0.5701(6) 0.3713(3) 0.0096(8) Uani 1 2 d S T P
N2 N 0.8094(4) 0.3095(4) 0.48087(18) 0.0128(6) Uani 1 1 d . . .
N3 N 1.0000 0.6721(7) 0.1913(3) 0.0292(12) Uani 1 2 d S T P
C1 C 1.0000 0.7534(7) 0.3457(3) 0.0188(11) Uani 1 2 d S T P
H1 H 1.0000 0.8509 0.3880 0.023 Uiso 1 2 calc R U P
C2 C 1.0000 0.7961(8) 0.2560(4) 0.0251(13) Uani 1 2 d S T P
C3 C 1.0000 0.4886(8) 0.2185(4) 0.0277(13) Uani 1 2 d S T P
H3 H 1.0000 0.3931 0.1753 0.033 Uiso 1 2 calc R U P
C4 C 1.0000 0.4347(8) 0.3066(4) 0.0178(11) Uani 1 2 d S T P
H4 H 1.0000 0.3057 0.3217 0.021 Uiso 1 2 calc R U P
C5 C 0.6951(5) 0.1970(5) 0.4842(2) 0.0120(7) Uani 1 1 d . . .
F F 1.0000 0.9827(4) 0.2317(3) 0.0481(12) Uani 1 2 d S T P
loop_
_atom_site_aniso_label
_atom_site_aniso_U_11
_atom_site_aniso_U_22
_atom_site_aniso_U_33
_atom_site_aniso_U_23
_atom_site_aniso_U_13
_atom_site_aniso_U_12
Pt 0.00460(13) 0.00451(12) 0.01193(13) 0.00016(11) 0.000 0.000
Fe 0.0043(4) 0.0050(4) 0.0133(5) 0.0019(4) 0.000 0.000
N1 0.005(2) 0.0121(18) 0.012(2) 0.0027(16) 0.000 0.000
N2 0.0101(14) 0.0107(13) 0.0175(16) 0.0005(11) -0.0006(11) 0.0018(13)
N3 0.039(3) 0.028(3) 0.020(3) 0.008(2) 0.000 0.000
C1 0.021(3) 0.016(3) 0.020(3) 0.002(2) 0.000 0.000
C2 0.032(3) 0.023(3) 0.021(3) 0.011(2) 0.000 0.000
C3 0.030(3) 0.026(3) 0.027(3) -0.013(3) 0.000 0.000
C4 0.018(3) 0.014(2) 0.022(3) -0.001(2) 0.000 0.000
C5 0.0110(16) 0.0077(15) 0.0174(19) 0.0013(12) -0.0007(12) 0.0015(14)
F 0.095(4) 0.023(2) 0.027(2) 0.0126(16) 0.000 0.000
loop_
_atom_type_symbol
_atom_type_description
_atom_type_scat_dispersion_real
_atom_type_scat_dispersion_imag
_atom_type_scat_source
C C 0.0033 0.0016 'International Tables Vol C Tables 4.2.6.8 and 6.1.1.4'
H H 0.0000 0.0000 'International Tables Vol C Tables 4.2.6.8 and 6.1.1.4'
N N 0.0061 0.0033 'International Tables Vol C Tables 4.2.6.8 and 6.1.1.4'
F F 0.0171 0.0103 'International Tables Vol C Tables 4.2.6.8 and 6.1.1.4'
Fe Fe 0.3463 0.8444 'International Tables Vol C Tables 4.2.6.8 and 6.1.1.4'
Pt Pt -1.7033 8.3905 'International Tables Vol C Tables 4.2.6.8 and 6.1.1.4'
loop_
_geom_angle_atom_site_label_1
_geom_angle_atom_site_label_2
_geom_angle_atom_site_label_3
_geom_angle
_geom_angle_site_symmetry_1
_geom_angle_site_symmetry_3
C5 Pt C5 180.00(14) 5_656 .
C5 Pt C5 89.2(2) 5_656 7_655
C5 Pt C5 90.8(2) . 7_655
C5 Pt C5 90.8(2) 5_656 3_556
C5 Pt C5 89.2(2) . 3_556
C5 Pt C5 180.00(18) 7_655 3_556
N1 Fe N1 180.0 5_766 .
N2 Fe N1 88.54(12) . 5_766
N2 Fe N1 91.46(12) 5_766 5_766
N2 Fe N1 88.54(12) 7_755 5_766
N2 Fe N1 91.46(12) 3_566 5_766
N2 Fe N1 91.46(12) . .
N2 Fe N1 88.54(12) 5_766 .
N2 Fe N1 91.46(12) 7_755 .
N2 Fe N1 88.54(12) 3_566 .
N2 Fe N2 180.0 . 5_766
N2 Fe N2 90.90(17) . 7_755
N2 Fe N2 89.10(17) 5_766 7_755
N2 Fe N2 89.10(17) . 3_566
N2 Fe N2 90.90(17) 5_766 3_566
N2 Fe N2 180.0 7_755 3_566
C1 N1 C4 117.5(5) . .
C1 N1 Fe 120.9(3) . .
C4 N1 Fe 121.5(4) . .
C5 N2 Fe 169.0(3) . .
C2 N3 C3 114.1(5) . .
N1 C1 C2 119.2(5) . .
N1 C1 H1 120.4 . .
C2 C1 H1 120.4 . .
N3 C2 F 116.2(5) . .
N3 C2 C1 125.8(5) . .
F C2 C1 118.1(5) . .
N3 C3 C4 123.6(5) . .
N3 C3 H3 118.2 . .
C4 C3 H3 118.2 . .
N1 C4 C3 119.9(5) . .
N1 C4 H4 120.1 . .
C3 C4 H4 120.1 . .
N2 C5 Pt 175.6(3) . .
loop_
_geom_bond_atom_site_label_1
_geom_bond_atom_site_label_2
_geom_bond_distance
_geom_bond_site_symmetry_2
Pt C5 1.989(4) 5_656
Pt C5 1.989(4) .
Pt C5 1.989(4) 7_655
Pt C5 1.989(4) 3_556
Fe N1 1.990(4) 5_766
Fe N1 1.990(4) .
Fe N2 1.941(3) .
Fe N2 1.941(3) 5_766
Fe N2 1.941(3) 7_755
Fe N2 1.941(3) 3_566
N1 C1 1.337(6) .
N1 C4 1.355(7) .
N2 C5 1.143(5) .
N3 C2 1.300(7) .
N3 C3 1.345(7) .
C1 C2 1.378(7) .
C1 H1 0.9300 .
C2 F 1.354(6) .
C3 C4 1.373(8) .
C3 H3 0.9300 .
C4 H4 0.9300 .
