#------------------------------------------------------------------------------
#$Date: 2017-09-22 01:45:41 +0300 (Fri, 22 Sep 2017) $
#$Revision: 201116 $
#$URL: file:///home/coder/svn-repositories/cod/cif/4/12/64/4126429.cif $
#------------------------------------------------------------------------------
#
# This file is available in the Crystallography Open Database (COD),
# http://www.crystallography.net/
#
# All data on this site have been placed in the public domain by the
# contributors.
#
data_4126429
loop_
_publ_author_name
'Tang, Yongxing'
'Kumar, Dheeraj'
'Shreeve, Jean'ne M.'
_publ_section_title
;
 Balancing Excellent Performance and High Thermal Stability in a
 Dinitropyrazole Fused 1,2,3,4-Tetrazine.
;
_journal_name_full               'Journal of the American Chemical Society'
_journal_paper_doi               10.1021/jacs.7b08789
_journal_year                    2017
_chemical_absolute_configuration unk
_chemical_formula_moiety         'C6 N10 O8'
_chemical_formula_sum            'C6 N10 O8'
_chemical_formula_weight         340.16
_space_group_crystal_system      orthorhombic
_space_group_IT_number           29
_space_group_name_Hall           'P 2c -2ac'
_space_group_name_H-M_alt        'P c a 21'
_symmetry_space_group_name_Hall  'P 2c -2ac'
_symmetry_space_group_name_H-M   'P c a 21'
_atom_sites_solution_primary     dual
_audit_creation_date             2017-08-14
_audit_creation_method
;
Olex2 1.2-alpha
(compiled 2017.08.10 svn.r3458 for OlexSys, GUI svn.r5375)
;
_cell_angle_alpha                90
_cell_angle_beta                 90
_cell_angle_gamma                90
_cell_formula_units_Z            4
_cell_length_a                   7.8872(12)
_cell_length_b                   11.9464(19)
_cell_length_c                   11.9276(19)
_cell_measurement_reflns_used    9967
_cell_measurement_temperature    173(2)
_cell_measurement_theta_max      25.29
_cell_measurement_theta_min      3.09
_cell_volume                     1123.9(3)
_computing_cell_refinement       'SAINT v8.34A (Bruker, 2013)'
_computing_data_collection       'COSMO (BRUKER, V1.61, 2009)'
_computing_data_reduction        'SAINT v8.34A (Bruker, 2013)'
_computing_molecular_graphics    'Olex2 (Dolomanov et al., 2009)'
_computing_publication_material  'Olex2 (Dolomanov et al., 2009)'
_computing_structure_refinement  'XL (Sheldrick, 2008)'
_computing_structure_solution    'ShelXT (Sheldrick, 2015)'
_diffrn_ambient_temperature      173(2)
_diffrn_detector_area_resol_mean 8.36
_diffrn_measured_fraction_theta_full 1.000
_diffrn_measured_fraction_theta_max 0.999
_diffrn_measurement_device_type  'Bruker APEX-II CCD'
_diffrn_measurement_method       \w
_diffrn_radiation_monochromator  graphite
_diffrn_radiation_type           MoK\a
_diffrn_radiation_wavelength     0.71073
_diffrn_reflns_av_R_equivalents  0.0257
_diffrn_reflns_av_unetI/netI     0.0141
_diffrn_reflns_Laue_measured_fraction_full 1.000
_diffrn_reflns_Laue_measured_fraction_max 0.999
_diffrn_reflns_limit_h_max       9
_diffrn_reflns_limit_h_min       -9
_diffrn_reflns_limit_k_max       14
_diffrn_reflns_limit_k_min       -14
_diffrn_reflns_limit_l_max       14
_diffrn_reflns_limit_l_min       -14
_diffrn_reflns_number            16914
_diffrn_reflns_point_group_measured_fraction_full 1.000
_diffrn_reflns_point_group_measured_fraction_max 0.996
_diffrn_reflns_theta_full        25.242
_diffrn_reflns_theta_max         25.399
_diffrn_reflns_theta_min         1.705
_diffrn_source                   'sealed tube'
_diffrn_standards_number         0
_exptl_absorpt_coefficient_mu    0.187
_exptl_absorpt_correction_T_max  0.7452
_exptl_absorpt_correction_T_min  0.6734
_exptl_absorpt_correction_type   multi-scan
_exptl_absorpt_process_details
'SADABS-2014/5 (Bruker,2014/5) was used for absorption correction. wR2(int) was 0.0839 before and 0.0448 after correction. The Ratio of minimum to maximum transmission is 0.9037. The \l/2 correction factor is 0.00150.'
_exptl_crystal_colour            colourless
_exptl_crystal_colour_primary    colourless
_exptl_crystal_density_diffrn    2.010
_exptl_crystal_description       block
_exptl_crystal_F_000             680
_exptl_crystal_recrystallization_method 'used as received'
_exptl_crystal_size_max          0.62
_exptl_crystal_size_mid          0.336
_exptl_crystal_size_min          0.17
_refine_diff_density_max         0.269
_refine_diff_density_min         -0.161
_refine_diff_density_rms         0.049
_refine_ls_abs_structure_details
;
 Flack x determined using 899 quotients [(I+)-(I-)]/[(I+)+(I-)]
 (Parsons, Flack and Wagner, Acta Cryst. B69 (2013) 249-259).
;
_refine_ls_abs_structure_Flack   0.2(4)
_refine_ls_extinction_method     none
_refine_ls_goodness_of_fit_ref   1.058
_refine_ls_hydrogen_treatment    undef
_refine_ls_matrix_type           full
_refine_ls_number_parameters     217
_refine_ls_number_reflns         2073
_refine_ls_number_restraints     1
_refine_ls_restrained_S_all      1.058
_refine_ls_R_factor_all          0.0368
_refine_ls_R_factor_gt           0.0348
_refine_ls_shift/su_max          0.000
_refine_ls_shift/su_mean         0.000
_refine_ls_structure_factor_coef Fsqd
_refine_ls_weighting_details
'w=1/[\s^2^(Fo^2^)+(0.0607P)^2^+0.3169P] where P=(Fo^2^+2Fc^2^)/3'
_refine_ls_weighting_scheme      calc
_refine_ls_wR_factor_gt          0.0903
_refine_ls_wR_factor_ref         0.0923
_reflns_Friedel_coverage         0.890
_reflns_Friedel_fraction_full    1.000
_reflns_Friedel_fraction_max     0.993
_reflns_number_gt                1975
_reflns_number_total             2073
_reflns_threshold_expression     'I > 2\s(I)'
_iucr_refine_instructions_details
;
TITL js817a_a.res in Pca2(1)
REM Old TITL JS817A in Pca2(1)
REM SHELXT solution in Pca2(1)
REM R1 0.108, Rweak 0.009, Alpha 0.026, Orientation as input
REM Flack x = 0.449 ( 0.336 ) from Parsons' quotients
REM Formula found by SHELXT: C19 N O4
CELL 0.71073 7.8872 11.9464 11.9276 90 90 90
ZERR 4 0.0012 0.0019 0.0019 0 0 0
LATT -1
SYMM -X,-Y,0.5+Z
SYMM 0.5+X,-Y,+Z
SYMM 0.5-X,+Y,0.5+Z
SFAC C N O
UNIT 24 40 32
 
L.S. 14
PLAN  2
SIZE 0.17 0.336 0.62
TEMP -100(2)
list 4
fmap 2
acta
REM <olex2.extras>
REM <HklSrc "%.\\JS817A.hkl">
REM </olex2.extras>
 
WGHT    0.060700    0.316900
FVAR       0.60469
O1    3    0.725465    0.879870    0.128113    11.00000    0.05067    0.06839 =
         0.04069    0.00719    0.01299    0.00866
O2    3    0.518501    0.980226    0.193813    11.00000    0.06197    0.04805 =
         0.03921    0.00491    0.00047    0.01170
O3    3    0.232289    0.875558    0.331805    11.00000    0.04306    0.07838 =
         0.05429   -0.00426   -0.01288    0.02231
O4    3    0.361419    0.995545    0.435856    11.00000    0.07947    0.04384 =
         0.04822   -0.00303    0.00619    0.02248
O5    3    0.211211    0.818735    0.566478    11.00000    0.04942    0.05840 =
         0.04875    0.02098    0.01041    0.02149
O6    3    0.105335    0.694206    0.678868    11.00000    0.02766    0.05357 =
         0.04410   -0.00163    0.00026    0.00073
O7    3    0.276455    0.628713    0.872266    11.00000    0.04037    0.05900 =
         0.04005    0.00041    0.00584    0.00521
O8    3    0.424150    0.476771    0.854138    11.00000    0.04269    0.04313 =
         0.05401    0.01443   -0.00242   -0.00237
N1    2    0.760382    0.777885    0.323860    11.00000    0.03062    0.03557 =
         0.03481   -0.00229    0.00129   -0.00321
N2    2    0.720161    0.730639    0.420990    11.00000    0.02740    0.03314 =
         0.03002   -0.00365   -0.00283    0.00442
N3    2    0.834747    0.657678    0.466363    11.00000    0.02579    0.04179 =
         0.03531   -0.00214   -0.00536    0.00199
N4    2    0.797926    0.607628    0.555305    11.00000    0.02698    0.04105 =
         0.03598   -0.00066   -0.00408    0.00522
N5    2    0.641939    0.630012    0.601408    11.00000    0.02257    0.03939 =
         0.03265   -0.00256   -0.00377    0.00151
N6    2    0.601969    0.573286    0.694383    11.00000    0.02720    0.03459 =
         0.03383    0.00277   -0.00486   -0.00024
N7    2    0.625627    0.907330    0.200221    11.00000    0.03760    0.03594 =
         0.03027    0.00053   -0.00118   -0.00402
N8    2    0.352278    0.907181    0.386683    11.00000    0.04653    0.04337 =
         0.03200   -0.00042   -0.00054    0.01635
N9    2    0.223915    0.737102    0.627927    11.00000    0.03158    0.04127 =
         0.03095   -0.00248   -0.00405    0.00619
N10   2    0.374180    0.567785    0.823176    11.00000    0.02561    0.03938 =
         0.03347    0.00310   -0.00386   -0.00454
C1    1    0.628814    0.842864    0.304103    11.00000    0.03726    0.03305 =
         0.02737   -0.00320   -0.00382   -0.00517
C2    1    0.503515    0.837851    0.386882    11.00000    0.03386    0.03390 =
         0.02437   -0.00262   -0.00268    0.00270
C3    1    0.562037    0.761535    0.463355    11.00000    0.02885    0.03192 =
         0.02633   -0.00590   -0.00506    0.00045
C4    1    0.518619    0.702068    0.564282    11.00000    0.03000    0.02799 =
         0.02949   -0.00341   -0.00611    0.00215
C5    1    0.388196    0.687832    0.639448    11.00000    0.02895    0.03229 =
         0.03144   -0.00296   -0.00462    0.00015
C6    1    0.447716    0.609002    0.717546    11.00000    0.03128    0.03332 =
         0.03114    0.00110   -0.00447   -0.00384
HKLF 4
 
REM  js817a_a.res in Pca2(1)
REM R1 =  0.0348 for    1975 Fo > 4sig(Fo)  and  0.0368 for all    2073 data
REM    217 parameters refined using      1 restraints
 
END  
     
WGHT      0.0607      0.3169 

REM Highest difference peak  0.269,  deepest hole -0.161,  1-sigma level  0.049
Q1    1   0.2364  0.7038  0.7050  11.00000  0.05    0.27
Q2    1   0.8800  0.7805  0.3274  11.00000  0.05    0.27

  REM The information below was added by Olex2.
  REM
  REM R1 = 0.0348 for 1975 Fo > 4sig(Fo) and 0.0368 for all 18161 data
  REM n/a parameters refined using n/a restraints
  REM Highest difference peak 0.27, deepest hole -0.16
  REM Mean Shift 0, Max Shift 0.000.

  REM +++ Tabular Listing of Refinement Information +++
  REM R1_all = 0.0368
  REM R1_gt = 0.0348
  REM wR_ref = 0.0923
  REM GOOF = 1.058
  REM Shift_max = 0.000
  REM Shift_mean = 0
  REM Reflections_all = 18161
  REM Reflections_gt = 1975
  REM Parameters = n/a
  REM Hole = -0.16
  REM Peak = 0.27
  REM Flack = 0.2(4)

  
;
_cod_data_source_file            ja7b08789_si_003.cif
_cod_data_source_block           js817a
_cod_database_code               4126429
_shelxl_version_number           2014/6
_shelx_space_group_comment
;
The symmetry employed for this shelxl refinement is uniquely defined
by the following loop, which should always be used as a source of
symmetry information in preference to the above space-group names.
They are only intended as comments.
;
_shelx_estimated_absorpt_t_max   0.969
_shelx_estimated_absorpt_t_min   0.893
_olex2_refinement_description
;
;
_contact_crystallographer_email  staples@chemistry.msu.com
_contact_crystallographer_name   'Richard Staples'
_olex2_diffrn_ambient_temperature_device 'Oxford Cryosystems'
_olex2_exptl_crystal_mounting_method
'The crystal was mounted on a nylon loop with paratone oil'
_olex2_submission_original_sample_id TANG-96
_olex2_submission_special_instructions 'No special instructions were received'
loop_
_space_group_symop_operation_xyz
'x, y, z'
'-x, -y, z+1/2'
'x+1/2, -y, z'
'-x+1/2, y, z+1/2'
loop_
_atom_site_label
_atom_site_type_symbol
_atom_site_fract_x
_atom_site_fract_y
_atom_site_fract_z
_atom_site_U_iso_or_equiv
_atom_site_adp_type
_atom_site_occupancy
_atom_site_site_symmetry_order
_atom_site_calc_flag
O1 O 0.7255(4) 0.8799(3) 0.1281(3) 0.0532(8) Uani 1 1 d
O2 O 0.5185(4) 0.9802(2) 0.1938(2) 0.0497(7) Uani 1 1 d
O3 O 0.2323(4) 0.8756(3) 0.3318(3) 0.0586(9) Uani 1 1 d
O4 O 0.3614(5) 0.9955(2) 0.4359(3) 0.0572(9) Uani 1 1 d
O5 O 0.2112(4) 0.8187(2) 0.5665(3) 0.0522(8) Uani 1 1 d
O6 O 0.1053(3) 0.6942(2) 0.6789(2) 0.0418(6) Uani 1 1 d
O7 O 0.2765(4) 0.6287(3) 0.8723(3) 0.0465(7) Uani 1 1 d
O8 O 0.4242(4) 0.4768(2) 0.8541(2) 0.0466(7) Uani 1 1 d
N1 N 0.7604(4) 0.7779(2) 0.3239(3) 0.0337(6) Uani 1 1 d
N2 N 0.7202(3) 0.7306(2) 0.4210(2) 0.0302(6) Uani 1 1 d
N3 N 0.8347(4) 0.6577(3) 0.4664(3) 0.0343(7) Uani 1 1 d
N4 N 0.7979(4) 0.6076(3) 0.5553(3) 0.0347(7) Uani 1 1 d
N5 N 0.6419(4) 0.6300(2) 0.6014(2) 0.0315(7) Uani 1 1 d
N6 N 0.6020(4) 0.5733(2) 0.6944(3) 0.0319(6) Uani 1 1 d
N7 N 0.6256(4) 0.9073(3) 0.2002(3) 0.0346(7) Uani 1 1 d
N8 N 0.3523(4) 0.9072(3) 0.3867(3) 0.0406(7) Uani 1 1 d
N9 N 0.2239(4) 0.7371(3) 0.6279(3) 0.0346(7) Uani 1 1 d
N10 N 0.3742(3) 0.5678(3) 0.8232(3) 0.0328(6) Uani 1 1 d
C1 C 0.6288(5) 0.8429(3) 0.3041(3) 0.0326(8) Uani 1 1 d
C2 C 0.5035(4) 0.8379(3) 0.3869(3) 0.0307(7) Uani 1 1 d
C3 C 0.5620(4) 0.7615(3) 0.4634(3) 0.0290(7) Uani 1 1 d
C4 C 0.5186(4) 0.7021(3) 0.5643(3) 0.0292(7) Uani 1 1 d
C5 C 0.3882(4) 0.6878(3) 0.6394(3) 0.0309(8) Uani 1 1 d
C6 C 0.4477(4) 0.6090(3) 0.7175(3) 0.0319(8) Uani 1 1 d
loop_
_atom_site_aniso_label
_atom_site_aniso_U_11
_atom_site_aniso_U_22
_atom_site_aniso_U_33
_atom_site_aniso_U_23
_atom_site_aniso_U_13
_atom_site_aniso_U_12
O1 0.0507(18) 0.0684(19) 0.0407(16) 0.0072(15) 0.0130(14) 0.0087(15)
O2 0.0620(18) 0.0480(15) 0.0392(15) 0.0049(13) 0.0005(14) 0.0117(14)
O3 0.0431(17) 0.078(2) 0.0543(18) -0.0043(17) -0.0129(15) 0.0223(16)
O4 0.079(2) 0.0438(16) 0.0482(18) -0.0030(14) 0.0062(16) 0.0225(15)
O5 0.0494(17) 0.0584(18) 0.0487(16) 0.0210(16) 0.0104(14) 0.0215(13)
O6 0.0277(13) 0.0536(15) 0.0441(15) -0.0016(13) 0.0003(11) 0.0007(12)
O7 0.0404(16) 0.0590(16) 0.0400(14) 0.0004(13) 0.0058(12) 0.0052(13)
O8 0.0427(15) 0.0431(14) 0.0540(17) 0.0144(13) -0.0024(12) -0.0024(12)
N1 0.0306(14) 0.0356(14) 0.0348(15) -0.0023(14) 0.0013(12) -0.0032(12)
N2 0.0274(15) 0.0331(13) 0.0300(15) -0.0036(13) -0.0028(11) 0.0044(11)
N3 0.0258(14) 0.0418(16) 0.0353(16) -0.0021(14) -0.0054(12) 0.0020(12)
N4 0.0270(14) 0.0410(16) 0.0360(18) -0.0007(14) -0.0041(12) 0.0052(12)
N5 0.0226(14) 0.0394(16) 0.0326(15) -0.0026(13) -0.0038(11) 0.0015(11)
N6 0.0272(13) 0.0346(14) 0.0338(16) 0.0028(13) -0.0049(13) -0.0002(12)
N7 0.0376(16) 0.0359(15) 0.0303(15) 0.0005(13) -0.0012(13) -0.0040(12)
N8 0.0465(18) 0.0434(17) 0.0320(16) -0.0004(15) -0.0005(15) 0.0163(14)
N9 0.0316(16) 0.0413(16) 0.0309(15) -0.0025(14) -0.0040(13) 0.0062(13)
N10 0.0256(13) 0.0394(16) 0.0335(15) 0.0031(14) -0.0039(12) -0.0045(12)
C1 0.0373(19) 0.0330(17) 0.0274(18) -0.0032(13) -0.0038(14) -0.0052(15)
C2 0.0339(18) 0.0339(16) 0.0244(17) -0.0026(14) -0.0027(14) 0.0027(13)
C3 0.0288(15) 0.0319(16) 0.0263(16) -0.0059(14) -0.0051(14) 0.0004(13)
C4 0.0300(16) 0.0280(16) 0.0295(16) -0.0034(14) -0.0061(14) 0.0021(12)
C5 0.0290(17) 0.0323(18) 0.0314(18) -0.0030(14) -0.0046(14) 0.0002(14)
C6 0.0313(17) 0.0333(17) 0.0311(19) 0.0011(14) -0.0045(14) -0.0038(14)
loop_
_atom_type_symbol
_atom_type_description
_atom_type_scat_dispersion_real
_atom_type_scat_dispersion_imag
_atom_type_scat_source
C C 0.0033 0.0016 'International Tables Vol C Tables 4.2.6.8 and 6.1.1.4'
N N 0.0061 0.0033 'International Tables Vol C Tables 4.2.6.8 and 6.1.1.4'
O O 0.0106 0.0060 'International Tables Vol C Tables 4.2.6.8 and 6.1.1.4'
loop_
_geom_angle_atom_site_label_1
_geom_angle_atom_site_label_2
_geom_angle_atom_site_label_3
_geom_angle
C1 N1 N2 102.6(3)
N1 N2 N3 117.3(3)
N1 N2 C3 114.7(3)
N3 N2 C3 128.0(3)
N4 N3 N2 119.1(3)
N3 N4 N5 117.0(3)
N6 N5 N4 116.4(3)
N6 N5 C4 114.7(3)
C4 N5 N4 128.9(3)
C6 N6 N5 103.1(3)
O1 N7 O2 126.9(3)
O1 N7 C1 116.7(3)
O2 N7 C1 116.3(3)
O3 N8 C2 117.7(3)
O4 N8 O3 125.5(3)
O4 N8 C2 116.6(3)
O5 N9 O6 124.5(3)
O5 N9 C5 117.4(3)
O6 N9 C5 118.1(3)
O7 N10 O8 126.7(3)
O7 N10 C6 117.6(3)
O8 N10 C6 115.6(3)
N1 C1 N7 118.5(3)
N1 C1 C2 113.9(3)
C2 C1 N7 127.6(3)
C1 C2 N8 123.7(3)
C3 C2 N8 131.1(3)
C3 C2 C1 105.1(3)
N2 C3 C4 112.6(3)
C2 C3 N2 103.7(3)
C2 C3 C4 143.6(3)
N5 C4 C3 114.3(3)
N5 C4 C5 104.0(3)
C5 C4 C3 141.7(3)
C4 C5 N9 124.4(3)
C4 C5 C6 105.4(3)
C6 C5 N9 130.0(3)
N6 C6 N10 115.8(3)
N6 C6 C5 112.7(3)
C5 C6 N10 131.3(3)
loop_
_geom_bond_atom_site_label_1
_geom_bond_atom_site_label_2
_geom_bond_distance
O1 N7 1.211(4)
O2 N7 1.216(4)
O3 N8 1.211(5)
O4 N8 1.210(4)
O5 N9 1.224(4)
O6 N9 1.227(4)
O7 N10 1.211(4)
O8 N10 1.214(4)
N1 N2 1.327(4)
N1 C1 1.317(5)
N2 N3 1.367(4)
N2 C3 1.395(4)
N3 N4 1.252(5)
N4 N5 1.374(4)
N5 N6 1.337(4)
N5 C4 1.372(4)
N6 C6 1.319(4)
N7 C1 1.459(5)
N8 C2 1.452(5)
N9 C5 1.430(4)
N10 C6 1.472(5)
C1 C2 1.398(5)
C2 C3 1.370(5)
C3 C4 1.439(5)
C4 C5 1.375(5)
C5 C6 1.405(5)
loop_
_refln_index_h
_refln_index_k
_refln_index_l
_refln_F_squared_meas
_refln_F_squared_sigma
1 0 0 -1.8 0.4
1 0 0 -3 0.3
-2 0 0 3108.29 51.59
-2 0 0 3103.99 51.89
-2 0 0 3078.29 51.49
2 0 0 3083.29 51.29
2 0 0 3114.79 51.49
3 0 0 -0.5 0.5
3 0 0 0.2 0.4
-3 0 0 0.1 0.7
-3 0 0 0.1 0.6
3 0 0 0.7 0.6
-3 0 0 0.4 0.6
4 0 0 0.6 0.6
-4 0 0 -0.1 0.6
-4 0 0 -0.2 0.7
4 0 0 0.5 0.7
-4 0 0 0.6 0.9
4 0 0 0.8 1
-4 0 0 -1 0.5
4 0 0 -0.3 0.6
5 0 0 -0.2 0.6
5 0 0 0.5 0.6
-5 0 0 0 0.6
5 0 0 -0.2 0.6
-5 0 0 -0.9 0.6
-5 0 0 -0.2 0.7
-5 0 0 0.4 0.7
5 0 0 -0.5 0.5
5 0 0 0.5 1
6 0 0 166.58 5.5
6 0 0 163.78 6.6
6 0 0 163.98 5.8
-6 0 0 164.98 5.9
6 0 0 170.68 5.5
6 0 0 170.68 5.7
-6 0 0 166.48 5.8
6 0 0 158.88 5.9
-6 0 0 172.28 6.3
-7 0 0 1.4 1.3
7 0 0 1.6 1.2
7 0 0 1.7 1.1
7 0 0 0.6 1.5
7 0 0 -0.3 0.9
7 0 0 0.2 0.9
-7 0 0 -0.1 0.9
7 0 0 0.2 0.9
-8 0 0 251.87 9
-8 0 0 237.48 8.6
8 0 0 252.87 8.5
8 0 0 235.18 8.5
8 0 0 241.08 9.6
9 0 0 -1.3 1.5
-9 0 0 -0.5 1.6
-9 0 0 -0.4 1.2
9 0 0 1.5 2.1
0 -1 0 42.7 1.2
0 1 0 35.2 1.1
-1 1 0 61.29 2.1
-1 -1 0 61.29 2
-1 1 0 58.99 1.6
1 -1 0 61.69 1.9
-1 1 0 61.59 1.9
1 1 0 61.09 1.6
1 -1 0 59.89 1.5
1 -1 0 58.59 1.9
-1 -1 0 61.69 1.9
-1 1 0 60.59 1.8
-1 -1 0 63.59 1.9
1 1 0 63.39 1.4
1 1 0 62.19 1.8
-2 -1 0 113.79 3.5
2 1 0 108.09 3
2 -1 0 114.79 3.5
-2 -1 0 114.19 3.3
2 1 0 114.59 2.9
2 -1 0 119.99 3.4
-2 -1 0 118.69 3.4
2 -1 0 110.99 2.8
-2 1 0 111.49 3.2
-2 1 0 110.59 3.2
-2 1 0 115.69 3
-2 1 0 114.09 3.2
2 1 0 112.69 2.7
-2 -1 0 113.79 2.7
3 -1 0 33.2 2
-3 1 0 32 1.9
-3 -1 0 33 2.1
3 1 0 34.6 1.9
-3 1 0 30.5 1.8
-3 -1 0 31.7 1.5
-3 1 0 35 2
3 -1 0 33.8 2.2
3 -1 0 33.3 1.7
3 1 0 35.7 1.7
-3 1 0 32.8 1.9
-3 -1 0 33.6 2
3 1 0 35.5 1.6
3 -1 0 33.1 1.6
3 1 0 33.7 1.7
-3 -1 0 31.3 1.9
4 1 0 437.26 9
4 -1 0 426.36 9.9
4 1 0 427.16 9.2
-4 -1 0 430.86 10.3
-4 1 0 438.16 9.6
4 -1 0 421.06 9
4 1 0 438.66 9.7
4 1 0 431.36 9.4
-4 -1 0 437.76 9.8
-4 1 0 418.96 9.8
4 -1 0 429.86 9.3
-4 1 0 428.06 9.8
4 -1 0 430.86 10.3
-4 -1 0 423.96 9
-5 1 0 4 1.1
5 -1 0 4.8 1.2
-5 -1 0 4 1.1
5 1 0 5.6 1.3
5 -1 0 3.4 1.1
-5 -1 0 4.5 1.4
5 -1 0 4.3 1
-5 1 0 4.7 1.2
5 1 0 6.6 1.2
-5 -1 0 3.1 1
-5 -1 0 5.1 1.4
5 1 0 3.5 1
5 -1 0 3.9 1.4
-5 1 0 4.5 1.1
-5 1 0 4 1.2
5 1 0 5 1.1
-6 1 0 87.29 4.2
6 1 0 79.79 3.7
6 -1 0 73.69 3.7
-6 1 0 73.39 4.1
6 1 0 81.49 3.5
6 -1 0 77.29 4.1
-6 -1 0 85.09 4.4
-6 -1 0 85.19 4.2
-6 -1 0 83.49 3.7
6 -1 0 75.49 3.7
-6 -1 0 82.69 3.9
-6 1 0 85.49 4
6 -1 0 77.19 3.8
6 1 0 74.39 3.9
6 -1 0 82.99 3.5
6 1 0 75.09 3.5
6 -1 0 79.89 4.6
7 1 0 48.5 4.1
-7 -1 0 50.29 3.8
7 -1 0 50.59 4.2
7 -1 0 51.19 3.4
7 -1 0 51.19 3.1
-7 1 0 49.3 3.7
-7 1 0 55.19 3.6
-7 -1 0 50.59 3.6
-7 1 0 45.6 3.5
7 -1 0 51.69 3.7
-7 -1 0 55.29 3.5
7 -1 0 53.29 3.3
7 -1 0 51.69 3.4
-7 -1 0 57.39 3.4
7 1 0 53.09 3.3
7 1 0 51.79 3.6
7 1 0 48.5 3.4
-8 1 0 39.9 3.6
8 1 0 37.6 3.4
8 1 0 38.5 3.7
8 -1 0 40.7 3.4
8 1 0 39.5 4.3
-8 -1 0 43.6 3.5
8 -1 0 38.2 3.6
-8 -1 0 37.8 3.7
8 -1 0 44.7 4.5
8 -1 0 41.1 3.6
8 1 0 43.9 3.3
-8 1 0 49.4 3.7
9 -1 0 10 3.1
9 -1 0 15.1 3.2
-9 -1 0 11.4 2.7
9 1 0 19.6 3.8
-9 1 0 13.2 2.8
9 1 0 15.7 3
0 -2 0 872.01 14.9
0 2 0 865.61 14.9
0 -2 0 892.91 15.5
1 -2 0 52.79 2.2
1 2 0 52.69 1.9
-1 -2 0 53.69 2
-1 2 0 54.89 1.6
1 -2 0 50.09 1.4
-1 -2 0 54.49 2.2
1 -2 0 56.39 2.1
1 2 0 51.89 1.7
-1 -2 0 54.59 1.7
-1 2 0 52.69 1.9
-1 2 0 49.1 1.9
2 2 0 1648.14 28.2
2 2 0 1610.44 28.5
-2 2 0 1682.53 28
-2 2 0 1666.63 28.9
2 -2 0 1618.24 27.7
-2 2 0 1641.04 28.6
-2 -2 0 1683.33 28.8
2 2 0 1647.14 27.3
-2 2 0 1652.63 28.6
2 -2 0 1650.63 28.9
2 -2 0 1640.94 28.9
-2 -2 0 1682.63 28.1
-2 -2 0 1678.93 29.2
3 -2 0 309.27 7.6
3 2 0 312.57 6.8
-3 -2 0 317.87 7.9
-3 2 0 321.07 7.4
3 2 0 302.77 6.2
-3 2 0 321.87 6.9
-3 -2 0 313.37 6.9
-3 2 0 318.67 7.7
3 2 0 316.47 7.2
3 -2 0 309.97 7.6
3 -2 0 309.37 6.6
-3 2 0 319.87 7.3
-3 -2 0 312.17 6.3
-3 -2 0 318.17 7.5
4 2 0 870.11 17.2
-4 2 0 895.11 17.5
-4 2 0 898.21 17.5
-4 -2 0 863.31 16.2
4 -2 0 930.21 18
-4 -2 0 884.81 17.6
4 2 0 866.61 16.1
-4 2 0 884.01 17.9
4 -2 0 879.11 16.6
4 2 0 875.31 16.7
-4 2 0 875.31 16.8
4 2 0 889.61 17.5
-4 -2 0 900.41 18.2
4 -2 0 895.91 18.1
-5 -2 0 103.69 4.4
-5 -2 0 100.89 3.5
-5 2 0 94.09 4.1
5 -2 0 102.99 3.8
-5 -2 0 98.59 4.6
5 2 0 101.79 3.4
5 -2 0 102.59 3.5
-5 2 0 100.99 5
5 2 0 104.09 3.7
-5 2 0 99.59 4.4
5 -2 0 103.99 4.8
-5 2 0 111.69 4
5 2 0 102.89 4.3
5 2 0 96.19 3.9
5 -2 0 98.69 4.4
6 -2 0 27.8 3.1
-6 -2 0 41.1 2.5
6 2 0 38.3 2.9
-6 2 0 42.6 3
6 2 0 38.8 2.5
-6 2 0 37.8 3
-6 2 0 34.5 2.5
6 2 0 39.5 2.7
6 -2 0 34.3 3
-6 -2 0 34.2 2.9
6 -2 0 35.6 2.7
6 -2 0 38.1 2.4
-6 -2 0 34.5 3.2
-7 -2 0 131.69 5.9
-7 2 0 142.59 5.9
7 -2 0 133.39 6
7 -2 0 131.09 6.5
7 2 0 132.39 5.8
7 2 0 131.29 5.4
7 -2 0 132.59 5.5
7 -2 0 133.39 5.4
7 -2 0 134.09 5.8
-7 2 0 137.39 6.1
-7 -2 0 127.39 6.2
-8 2 0 1.2 1.4
-8 -2 0 0.9 1.4
8 2 0 -0.5 1.6
-8 -2 0 1.7 1.6
8 -2 0 -0.8 1.4
8 -2 0 1 1.3
8 -2 0 2.4 2.1
-8 2 0 -1.9 1
8 2 0 2.3 1.3
8 2 0 -1.1 1.1
9 2 0 7.8 2.4
-9 2 0 6.5 2.2
9 -2 0 6.4 2.9
9 -2 0 8.3 2.6
-9 2 0 9.1 2.3
9 2 0 12 3.2
-9 -2 0 12.5 2.8
9 2 0 13.1 2.7
0 3 0 440.46 9.1
0 -3 0 486.95 8.7
0 3 0 503.65 8.8
0 -3 0 461.55 9.5
-1 3 0 16.7 1.3
-1 -3 0 17.2 1.6
1 -3 0 18.4 1.4
-1 -3 0 17.4 1.2
-1 3 0 13.8 1.2
1 3 0 17.8 1.2
1 -3 0 17.3 0.9
-1 3 0 16 1
-1 -3 0 16.6 1.3
1 -3 0 18.4 1.5
1 3 0 16.9 1.2
-2 3 0 180.58 4
-2 -3 0 172.88 5.1
2 -3 0 178.28 5
2 -3 0 177.78 3.8
2 3 0 173.98 4.3
2 3 0 181.88 4.6
-2 3 0 169.88 4.6
-2 -3 0 177.38 4.2
-2 3 0 177.88 4.7
-2 -3 0 171.18 4.8
2 -3 0 183.28 5
-3 3 0 204.18 5.5
-3 3 0 197.48 5.8
-3 -3 0 201.98 6.1
-3 -3 0 202.98 5.8
3 3 0 194.68 5.3
3 -3 0 198.18 5.8
-3 3 0 199.08 4.8
3 -3 0 196.08 4.6
-3 3 0 197.58 5.5
3 -3 0 195.38 5.8
3 3 0 195.78 5
-3 -3 0 193.38 4.9
-4 -3 0 233.88 6.8
-4 -3 0 235.28 5.9
4 -3 0 230.98 7
4 3 0 224.58 6.3
-4 3 0 230.48 6.5
4 3 0 230.78 5
4 -3 0 230.08 6.9
-4 3 0 224.68 5.8
-4 3 0 233.18 6.6
4 -3 0 220.18 5.6
4 3 0 224.28 5.8
-4 3 0 227.98 6.8
-4 -3 0 233.18 7.2
5 3 0 177.18 5.2
5 -3 0 175.08 4.8
-5 -3 0 178.58 5.4
-5 3 0 177.78 5.3
5 -3 0 170.68 6.2
5 -3 0 173.98 5.1
-5 3 0 165.98 6.1
-5 3 0 175.08 5.9
5 3 0 167.38 5.6
5 3 0 173.78 6
-5 3 0 175.48 6
5 -3 0 162.28 6.3
-5 -3 0 176.68 6.5
-5 -3 0 172.48 6.1
-6 3 0 118.59 4.4
-6 3 0 116.89 5.1
6 3 0 105.59 4.2
6 3 0 112.59 5
-6 3 0 105.89 4.9
-6 -3 0 91.59 4.8
6 3 0 103.29 4.6
-6 -3 0 106.29 5.5
-6 3 0 108.09 5.2
6 -3 0 104.79 5.5
6 -3 0 112.39 5.3
6 -3 0 125.79 4.6
-6 -3 0 113.09 4.5
7 -3 0 14.5 2.7
-7 3 0 14.2 2.6
-7 -3 0 13.7 2
-7 -3 0 14 2.6
7 -3 0 18.4 3.1
7 3 0 13 2.2
7 3 0 17.6 2.6
-7 3 0 15.1 2.4
-7 3 0 18.5 3.4
-7 -3 0 13.2 2.7
7 -3 0 23.3 2.8
8 -3 0 -1.2 2.1
-8 -3 0 -0.5 1.5
8 3 0 0.4 1.3
8 3 0 -2 0.9
8 -3 0 -1.1 1.4
-8 3 0 0 1.2
-8 3 0 -1.5 1.1
-8 -3 0 -1.1 1.3
8 -3 0 -1 1.1
-9 -3 0 36.8 4.2
9 3 0 40.2 4.9
-9 3 0 35.6 4
9 -3 0 36.8 4.3
9 -3 0 41.4 4.1
9 3 0 37.5 4
9 3 0 45.1 3.9
9 -3 0 37.6 6.5
0 -4 0 813.62 15.8
0 -4 0 796.32 14.6
0 4 0 822.72 14.7
0 4 0 815.22 15.3
0 -4 0 851.01 16.6
1 4 0 109.39 2.5
1 -4 0 105.39 3.7
-1 -4 0 106.99 3.9
1 4 0 109.29 3.3
-1 -4 0 109.39 3.2
-1 4 0 106.89 2.8
-1 4 0 104.99 3.2
1 -4 0 107.09 3.5
1 -4 0 107.79 2.6
1 4 0 103.99 3.2
-1 4 0 108.79 3.5
-1 -4 0 102.39 3.3
-2 4 0 1231.28 22.8
2 -4 0 1243.98 21.2
2 4 0 1260.87 22.7
2 -4 0 1257.47 23.2
-2 -4 0 1264.87 23.6
-2 -4 0 1241.48 22.9
-2 4 0 1273.37 21.7
2 -4 0 1236.68 23.2
-2 -4 0 1281.57 22.1
-2 4 0 1260.87 22.9
2 4 0 1222.48 22.4
3 -4 0 390.26 7.9
3 4 0 394.66 9.1
-3 4 0 408.46 9.3
-3 4 0 390.46 9.3
3 4 0 406.66 8.8
-3 -4 0 398.16 9.5
3 -4 0 406.46 9.7
-3 -4 0 402.26 10.1
-3 4 0 417.06 8.3
3 -4 0 409.96 9.7
-3 -4 0 411.16 8.5
-4 4 0 53.29 2.4
4 -4 0 55.49 3.3
4 4 0 53.89 2.5
4 4 0 54.59 2.9
-4 4 0 55.09 3.1
-4 -4 0 56.49 3.6
-4 4 0 59.29 3.1
-4 -4 0 58.69 2.6
-4 -4 0 59.89 3.3
4 -4 0 56.99 2.4
4 -4 0 63.79 3.5
-5 4 0 3.4 1
5 4 0 5 1.1
5 -4 0 5.3 1.8
-5 -4 0 6 1.6
-5 4 0 6.4 1.5
5 4 0 7.3 1.5
-5 -4 0 4.4 1.6
5 -4 0 5.9 1.3
5 -4 0 4.5 1.6
5 4 0 6.8 1.6
-5 4 0 8.7 1.7
-5 -4 0 5.7 1.2
6 4 0 61.69 3.9
-6 4 0 63.09 3.9
6 -4 0 63.89 4.1
-6 -4 0 52.09 3.8
6 4 0 46 3.2
6 -4 0 59.59 4.3
-6 -4 0 53.49 4.1
-6 4 0 57.19 3.7
-6 -4 0 61.09 3.3
6 4 0 61.59 3.2
7 -4 0 156.78 7
7 4 0 163.68 6.7
-7 -4 0 150.68 7.2
-7 4 0 151.48 6.6
-7 4 0 156.18 6.7
7 -4 0 151.48 7.1
-7 -4 0 148.79 6.7
7 4 0 151.88 6.3
8 -4 0 14.8 2.8
8 -4 0 10.1 2.6
8 4 0 12.6 2.5
8 -4 0 12.3 3
8 4 0 13.3 2.6
-8 -4 0 8 2.5
-8 -4 0 12.9 2.8
-8 4 0 11.2 2.5
-9 -4 0 11.9 3.1
9 -4 0 18.8 3.5
9 4 0 16.4 3
9 -4 0 15 3.2
9 4 0 13.8 2.9
-9 4 0 13.1 2.9
-9 -4 0 16.7 3.3
0 5 0 18.6 1.6
0 -5 0 22.3 1.5
0 -5 0 18.8 1.6
0 -5 0 19.3 2
0 5 0 22.1 1.4
-1 -5 0 58.59 2.5
-1 -5 0 54.69 3
-1 5 0 53.79 2.4
-1 -5 0 52.89 2.5
1 5 0 51.59 2.5
1 -5 0 55.39 2.9
-1 5 0 57.49 2.6
1 -5 0 51.39 2.6
1 -5 0 54.49 1.9
-1 5 0 55.29 2.1
1 5 0 54.29 2.4
1 5 0 53.39 1.8
-2 -5 0 0.5 0.6
-2 5 0 1.1 0.6
2 -5 0 -1.4 0.8
-2 5 0 0.3 0.7
2 5 0 0.4 0.6
-2 -5 0 0.6 0.8
2 -5 0 0.5 0.5
-2 -5 0 1.8 1.2
2 5 0 0.3 0.6
-2 5 0 0 0.6
2 -5 0 -0.2 0.8
3 -5 0 4.9 1.4
3 -5 0 3.7 0.7
-3 -5 0 5.7 1
-3 -5 0 6.3 1.4
-3 5 0 6.7 1
-3 5 0 6.3 1.3
3 -5 0 3 1.2
-3 5 0 4.4 1.1
-3 -5 0 6.9 1.7
3 5 0 4 1.1
3 5 0 6.2 1
4 5 0 70.89 3.1
-4 -5 0 68.29 2.9
-4 5 0 70.29 3.6
4 5 0 65.49 3.3
-4 -5 0 60.09 3.9
-4 -5 0 64.79 3.6
-4 5 0 70.49 3.5
-4 5 0 68.59 2.7
4 -5 0 65.69 3.8
5 -5 0 692.53 16
-5 -5 0 678.53 15.7
5 5 0 675.93 14.2
5 5 0 644.04 15.2
-5 -5 0 684.53 14
-5 5 0 651.53 15.4
-5 -5 0 652.93 16.3
5 5 0 665.83 15
-5 5 0 668.23 15.3
6 -5 0 25.1 3
6 5 0 27.1 2.2
-6 -5 0 27.7 3.1
-6 -5 0 26.9 3.3
6 5 0 24.3 2.6
-6 5 0 26.1 2.9
-6 5 0 28.3 2.9
6 5 0 25 2.8
6 -5 0 25.2 3.3
-7 -5 0 21 3.4
-7 5 0 23.1 3
-7 5 0 24.6 3
7 -5 0 28.9 3.9
7 -5 0 23.6 3.2
7 5 0 26.3 3
7 5 0 27.6 3
-7 -5 0 25.5 3.4
-8 5 0 17.6 3.2
8 -5 0 21.4 3.8
8 5 0 14.1 2.6
8 -5 0 20.2 3.4
-8 5 0 18.8 3.3
8 -5 0 16.2 3.3
8 5 0 18.4 3.2
-8 -5 0 12.8 3
-8 -5 0 18.9 3.3
0 6 0 3.7 0.8
0 -6 0 4.5 1
0 -6 0 3.1 1.4
0 6 0 2.7 0.9
0 -6 0 2.5 1
1 -6 0 51.19 3.2
-1 6 0 55.09 2.3
1 -6 0 52.99 2
1 6 0 53.29 2.7
1 6 0 55.09 2
-1 -6 0 44.8 3.1
1 6 0 55.89 2.6
-1 -6 0 50.39 3.2
-1 6 0 53.39 2.8
1 -6 0 50.19 2.9
-1 6 0 52.69 2.5
-1 -6 0 52.59 2.6
-2 6 0 328.57 8.2
-2 -6 0 311.17 9
2 -6 0 336.07 6.6
2 6 0 337.97 8.2
-2 6 0 334.97 7.2
2 6 0 324.97 8.1
2 -6 0 340.87 8.8
-2 -6 0 352.46 7.7
-2 -6 0 337.07 8.3
-2 6 0 337.37 8.5
2 -6 0 340.17 9
-3 6 0 2.8 1
-3 -6 0 4.4 1.4
-3 6 0 6.8 1.3
3 -6 0 3.7 1.4
3 6 0 4.8 1.2
-3 6 0 4.3 0.9
-3 -6 0 5.7 1.8
3 6 0 6.4 1.2
3 -6 0 5.2 1.4
-3 -6 0 3.9 1
-4 -6 0 7.6 1.8
4 -6 0 5.4 1.6
4 6 0 9 1.6
4 6 0 11 1.5
-4 6 0 10.2 1.9
-4 6 0 8 1.7
-4 -6 0 9.2 2.2
4 -6 0 9.8 2.1
-4 -6 0 10.3 1.5
5 6 0 95.79 4.6
-5 6 0 92.69 4.7
5 -6 0 99.29 5.2
5 6 0 91.59 4.6
-5 -6 0 97.49 5
-5 6 0 92.99 4.7
5 6 0 105.29 4.2
-5 -6 0 99.19 5.6
-5 -6 0 98.99 4.3
6 6 0 151.68 6.1
-6 6 0 145.49 6.4
6 -6 0 134.69 6.6
-6 -6 0 147.39 7.2
6 -6 0 142.29 6.7
6 6 0 135.69 5.3
-6 -6 0 131.49 6.3
6 6 0 143.79 6.3
-6 6 0 142.79 6.2
7 -6 0 30.6 3.7
-7 -6 0 31.9 4
-7 6 0 23.8 3
-7 6 0 25 3.2
7 -6 0 27.5 4.1
7 6 0 29.5 3.2
7 6 0 25.6 3.2
-7 -6 0 25 3.7
-8 6 0 3.3 2
-8 -6 0 1.2 1.9
8 6 0 -0.3 1.5
8 -6 0 -1.8 2.6
-8 6 0 2 1.7
8 6 0 2.9 1.6
8 -6 0 1.1 2
-8 -6 0 1.5 1.9
8 -6 0 2 2
0 7 0 490.85 10.3
0 -7 0 519.65 10.3
0 7 0 487.15 11.4
0 -7 0 484.55 12.1
0 -7 0 506.25 11.2
-1 -7 0 139.69 4.6
1 -7 0 144.09 5.6
-1 7 0 141.99 4.3
-1 7 0 148.29 4.6
1 -7 0 145.69 5.2
1 7 0 141.39 3.8
1 7 0 142.59 5
-1 -7 0 129.79 5.5
1 7 0 146.09 4.7
1 -7 0 140.49 3.8
-1 7 0 143.39 5.1
-2 7 0 81.29 3.8
2 -7 0 78.09 4.3
-2 7 0 77.99 2.9
2 7 0 83.09 3.7
-2 -7 0 79.49 3.3
2 -7 0 74.89 3.9
-2 7 0 75.79 3.5
-2 -7 0 76.59 3.7
-2 -7 0 77.89 4.4
2 7 0 76.19 3.5
3 -7 0 6.4 1.7
-3 -7 0 6.9 1.6
-3 -7 0 4.6 1.7
3 7 0 8.1 1.4
3 -7 0 5.4 1.8
-3 7 0 7.5 1.2
-3 7 0 9.7 1.7
3 7 0 8.2 1.6
-3 7 0 5.2 1.3
-3 -7 0 6.4 1.3
-4 -7 0 1 1.3
4 -7 0 1.1 1.6
4 7 0 1 1
4 7 0 2.3 0.9
-4 -7 0 1.3 1
-4 7 0 2.1 1.2
4 -7 0 0 1.2
-4 7 0 4 1.4
-4 -7 0 1.5 1.6
-5 7 0 23 2.6
5 7 0 23.6 2.6
-5 7 0 22.9 2.8
5 7 0 25.7 2.3
-5 -7 0 18.2 2.9
5 -7 0 26.5 3.5
-5 -7 0 23.8 3.4
5 -7 0 22.7 3
5 7 0 16.9 2.4
-6 7 0 1.6 1.3
6 7 0 1.6 1.4
6 7 0 2.3 1.4
-6 7 0 3 1.5
6 -7 0 2.8 2.1
6 7 0 1.2 1.1
6 -7 0 4.2 2.1
-6 -7 0 1.4 1.9
-6 -7 0 1.7 1.9
7 -7 0 30.5 3.9
-7 -7 0 39.4 4.5
7 7 0 38.8 3.8
7 7 0 39.8 3.8
-7 7 0 33 3.6
7 -7 0 35.8 4.6
-7 7 0 33.7 3.7
-7 -7 0 36.6 4.1
8 -7 0 50.99 5.1
-8 -7 0 47.2 4.9
-8 -7 0 50.19 5.3
8 -7 0 47.3 4.9
8 7 0 50.19 4.6
-8 7 0 46.4 4.6
-8 7 0 47.2 4.5
8 7 0 47.7 4.5
0 -8 0 400.66 9.9
0 8 0 412.16 9.1
0 8 0 393.36 10.2
0 -8 0 407.86 9
0 -8 0 407.16 11.2
1 -8 0 84.09 4.6
1 -8 0 85.49 4.1
-1 -8 0 91.09 4.9
-1 8 0 87.99 3.4
1 8 0 95.09 3.9
1 8 0 88.79 3.1
-1 -8 0 93.69 3.8
-1 8 0 93.49 3.8
-1 8 0 85.39 4.1
1 8 0 90.99 4.1
-2 -8 0 288.67 9.4
-2 -8 0 308.07 8.3
-2 8 0 300.47 8.7
2 8 0 300.17 8.5
-2 -8 0 306.57 7.8
-2 8 0 318.97 7.4
2 -8 0 293.77 9.3
2 -8 0 301.37 8.9
-2 8 0 304.67 8.3
2 8 0 305.77 8.4
3 -8 0 9 2
-3 -8 0 7 2
-3 8 0 6.5 1.6
3 -8 0 11.4 2.5
-3 8 0 9.5 1.8
-3 -8 0 7.2 1.9
3 8 0 8 1.6
3 8 0 8.6 1.8
-3 -8 0 7.7 1.5
-4 8 0 254.57 8.4
4 8 0 255.57 7.7
4 8 0 258.27 8.1
-4 8 0 258.77 8.4
4 -8 0 242.88 8.7
-4 -8 0 259.77 8.5
4 -8 0 240.58 8.9
-4 -8 0 261.77 9.4
-5 -8 0 7.4 2.5
5 -8 0 7.1 2.2
-5 8 0 8.5 2.1
5 8 0 10.9 1.8
5 -8 0 10 2.6
5 8 0 8.1 2
-5 8 0 9.1 2
-5 -8 0 9.2 2.3
5 8 0 11.4 2.2
-6 -8 0 4.3 2.3
6 8 0 9.6 2.3
6 -8 0 8.4 2.5
6 8 0 6.2 2
-6 8 0 7 2
-6 -8 0 5.5 2.4
6 -8 0 5.7 2.6
-6 8 0 8.6 2.2
-7 8 0 4.8 2.3
-7 -8 0 3.9 2.6
7 8 0 5.2 2.1
7 -8 0 6.5 3
7 8 0 5.8 2.1
7 -8 0 0.4 1.9
-7 -8 0 8.1 2.6
-7 8 0 6.2 2.1
0 -9 0 10.2 2.4
0 -9 0 6.5 1.6
0 9 0 8 1.7
0 9 0 10.4 1.5
-1 9 0 87.59 3.9
1 9 0 90.09 4.3
-1 9 0 88.69 4.4
1 -9 0 81.19 4.2
1 9 0 77.89 3.8
-1 -9 0 78.89 4.9
1 -9 0 87.59 5.1
-1 9 0 92.29 3.7
-1 -9 0 81.19 3.9
-2 9 0 1.6 1
-2 -9 0 0.4 1.7
2 9 0 3.6 1.3
-2 9 0 4.5 1.4
2 9 0 4.8 1.5
-2 -9 0 5.2 1.7
2 -9 0 2.4 1.8
-2 -9 0 3.3 1.3
2 -9 0 2 1.4
-3 -9 0 229.68 7.7
3 9 0 231.48 7.6
3 -9 0 236.58 8.6
-3 9 0 223.18 7.8
3 -9 0 208.48 7.9
3 9 0 211.78 7.3
-3 9 0 228.38 7.7
-3 -9 0 213.18 8.6
-4 9 0 121.19 5.8
-4 9 0 117.39 5.7
-4 -9 0 121.09 5.9
4 9 0 118.99 5.5
-4 -9 0 119.29 6.7
4 -9 0 120.89 6.4
4 -9 0 115.49 6.1
4 9 0 127.09 5.4
5 -9 0 16.1 3.3
5 9 0 21.9 2.5
5 9 0 19.2 2.8
-5 9 0 21.8 2.9
-5 -9 0 15.1 3.3
5 -9 0 20 3.4
5 9 0 15 2.6
-5 -9 0 16.3 3.1
-5 9 0 18.3 2.9
6 9 0 6.4 2.1
6 9 0 7.5 2.3
6 -9 0 7.4 2.9
-6 9 0 5.1 2.3
-6 -9 0 5.3 2.6
-6 -9 0 1.5 2.2
6 -9 0 3.2 2.4
-6 9 0 3.5 1.9
-7 9 0 -0.4 1.4
7 9 0 0.5 1.7
-7 -9 0 1.8 2.3
-7 9 0 -2 1.4
-7 -9 0 0.4 2.4
7 -9 0 2.5 2.2
7 -9 0 -1.2 2.7
7 9 0 -2.9 1.5
0 10 0 119.69 5.4
0 -10 0 128.09 5.4
0 -10 0 117.19 6.3
1 -10 0 0.6 1.5
1 10 0 3 1.3
-1 10 0 3.2 1.4
1 10 0 1.3 1.1
1 -10 0 4.9 2.3
-1 10 0 1.3 1.1
-1 -10 0 2.4 2
-1 10 0 3.8 1.3
2 -10 0 5.7 1.9
-2 -10 0 5.3 1.6
-2 -10 0 3.9 2.1
-2 10 0 6.2 1.8
2 -10 0 11.1 2.7
2 10 0 5.4 1.7
2 10 0 3.7 1.5
-2 -10 0 4.2 1.7
-2 10 0 4.3 1.6
3 10 0 70.49 4.2
-3 10 0 55.79 4
3 -10 0 58.69 4.5
-3 -10 0 56.79 4.8
-3 -10 0 56.79 4.2
3 -10 0 60.89 5.1
3 10 0 66.59 4.2
-3 10 0 68.59 4.2
-4 -10 0 10.5 2.7
4 10 0 11.6 2.3
-4 -10 0 16.8 3.5
-4 10 0 8.2 2.2
4 -10 0 11.5 2.9
-4 10 0 7.5 2.1
4 -10 0 8.2 2.8
4 10 0 8.8 2.2
5 10 0 85.69 5.2
5 -10 0 81.59 5.7
-5 -10 0 90.89 5.7
-5 10 0 89.29 5.4
-5 -10 0 93.49 6.7
5 -10 0 92.49 6.4
5 10 0 73.09 4.6
5 10 0 70.99 4.8
-5 10 0 84.49 5.3
-6 -10 0 0.5 2.4
-6 10 0 -0.4 1.3
6 10 0 0.9 1.7
-6 -10 0 0 2.3
6 10 0 0.2 1.5
-6 10 0 1.9 1.8
6 -10 0 -2 2.7
6 -10 0 4.4 2.6
0 -11 0 53.99 3.9
0 -11 0 39.1 4.5
0 11 0 48.7 3.7
1 11 0 0.7 1.4
1 -11 0 -1.4 1.9
1 11 0 1.5 1.3
1 -11 0 2 1.7
-1 11 0 1.8 1.3
-1 -11 0 3.1 2.3
-2 11 0 38.9 3.6
2 -11 0 29.8 3.5
-2 11 0 40.7 3.3
2 11 0 41.8 3.6
2 11 0 44.8 3.4
-2 -11 0 41.6 4.6
2 -11 0 36.6 4.5
-3 -11 0 22.5 3.4
-3 11 0 22.8 3
-3 -11 0 26.9 4
-3 11 0 21.9 2.9
3 11 0 19.5 2.9
3 -11 0 20 3.7
3 11 0 24.1 2.9
3 -11 0 27 3.6
4 -11 0 5.1 2.8
-4 11 0 2.1 1.5
-4 -11 0 -0.1 2.3
-4 11 0 3.2 1.7
4 -11 0 3.6 2.4
4 11 0 0 1.5
4 11 0 4.9 1.8
-4 -11 0 1 2.1
4 11 0 5.4 1.9
5 11 0 9.1 2.4
-5 11 0 6.5 2.2
-5 11 0 4.5 2.1
5 -11 0 5.6 2.7
5 11 0 6.8 2.1
-5 -11 0 8.5 2.9
5 11 0 6.8 2.4
-5 -11 0 8.6 3.2
5 -11 0 14 3.7
-6 11 0 34.4 4.3
-6 -11 0 18.9 4
6 11 0 26.9 4
-6 11 0 15.5 3.1
6 -11 0 31.2 4.6
6 11 0 28.6 3.9
-6 -11 0 38.5 4.8
6 -11 0 32.1 5.5
0 12 0 24.1 3.1
0 -12 0 29.9 4.3
0 -12 0 30.1 3.4
1 12 0 14.4 2.7
-1 -12 0 13.2 3.5
1 -12 0 12.2 2.7
-1 12 0 12.4 2.6
1 12 0 11.7 2.2
1 -12 0 14 3.4
2 -12 0 10.6 2.8
-2 12 0 5.2 1.9
-2 -12 0 6.6 2.8
2 12 0 9.6 2.3
2 12 0 8.1 2.1
2 -12 0 7.4 3.2
-2 12 0 5.4 1.8
-3 -12 0 20.7 4
-3 12 0 23.5 3.2
-3 12 0 19.9 3.2
3 12 0 26.3 3.3
3 -12 0 28.1 4.8
3 -12 0 21.8 3.7
3 12 0 21 3.2
-4 -12 0 45.8 5.7
4 -12 0 58.39 5.3
-4 12 0 59.79 4.6
4 -12 0 56.89 6
4 12 0 62.89 4.6
4 12 0 52.59 4.4
-4 12 0 55.49 4.7
-4 -12 0 70.29 5.2
4 12 0 48.8 4.1
-5 12 0 2.3 1.8
-5 12 0 0 2
5 -12 0 6.5 3.7
5 12 0 3.9 2
5 12 0 4.7 2.2
-5 -12 0 -0.7 2.6
5 -12 0 -0.5 2.2
-5 -12 0 3.8 2.5
5 12 0 5.3 2.1
0 13 0 54.99 4.5
0 -13 0 66.79 6.1
1 13 0 -0.1 1.5
1 13 0 2.1 1.7
1 -13 0 0.1 2.8
-1 -13 0 6 3
1 -13 0 2.1 2
-1 13 0 0.6 1.7
2 -13 0 57.49 6.2
2 -13 0 59.79 5
2 13 0 63.69 4.7
-2 -13 0 66.19 6.3
2 13 0 60.39 4.8
-2 13 0 51.99 4.6
3 -13 0 12.5 3.9
-3 13 0 8.9 2.4
3 13 0 7.8 2.5
-3 -13 0 9 3.3
3 -13 0 15.9 3.3
3 13 0 13.7 2.7
-3 13 0 7.9 2.4
4 13 0 7.6 2.6
4 -13 0 12.3 3.9
-4 -13 0 9.2 3.6
-4 13 0 6.8 2.6
-4 13 0 6.2 2.3
4 -13 0 6.9 2.9
4 13 0 5.6 2.3
0 14 0 1.6 1.8
0 -14 0 -1.7 3
-1 -14 0 -2.1 2.9
1 14 0 2.4 1.9
1 -14 0 0.4 2.9
1 -14 0 5 3.5
-1 14 0 1.1 2
2 -14 0 -3.1 3.1
2 14 0 2.5 1.9
-2 14 0 2 1.8
2 14 0 -0.5 1.7
2 -14 0 -1.7 1.9
-2 -14 0 -1.9 2.5
0 0 1 -0.3 0.2
0 0 1 0.1 0.3
0 0 -1 -0.5 0.2
0 0 -1 -0.5 0.2
-1 0 -1 -0.5 0.4
1 0 1 0 0.3
-1 0 1 0 0.4
-1 0 1 0.1 0.5
-1 0 -1 -0.6 0.4
1 0 -1 -0.3 0.4
1 0 -1 -0.1 0.3
1 0 1 -0.9 0.4
1 0 -1 -0.1 0.4
-1 0 1 -0.5 0.5
2 0 -1 549.05 10.3
2 0 -1 529.65 10.1
2 0 1 540.25 9.8
-2 0 -1 541.35 10.4
-2 0 1 549.85 10.3
-2 0 1 539.95 10.7
-2 0 -1 531.75 10.7
-2 0 -1 542.75 9.8
-2 0 1 557.14 11
2 0 -1 544.45 10.1
-2 0 1 539.75 10.6
2 0 1 515.15 10.2
-3 0 -1 0.3 0.6
-3 0 1 0.2 0.7
3 0 1 0.3 0.4
-3 0 1 0.7 0.6
3 0 -1 0.5 0.6
-3 0 1 1.2 0.8
3 0 1 1.1 0.7
3 0 -1 0.3 0.6
3 0 -1 1.7 0.7
-3 0 1 1 0.7
-3 0 -1 -0.7 0.5
3 0 1 -0.1 0.5
-3 0 -1 -0.4 0.7
-4 0 1 239.18 6.9
4 0 -1 253.27 6.3
-4 0 -1 252.27 6.3
-4 0 1 247.78 6.4
-4 0 1 264.67 7
-4 0 1 249.18 6.5
4 0 1 251.37 7.3
-4 0 -1 245.48 7
4 0 -1 253.27 6.5
4 0 -1 259.67 6.5
4 0 -1 251.17 6.4
-4 0 -1 238.38 6.6
-4 0 1 251.57 6.7
4 0 1 250.27 6.5
4 0 1 253.97 6
4 0 1 247.48 5.9
-5 0 1 -0.4 0.8
-5 0 -1 0 0.8
5 0 -1 0.5 0.8
-5 0 1 0.3 0.8
-5 0 1 0.9 0.9
5 0 1 0.3 0.6
5 0 -1 0 0.7
5 0 -1 0.6 0.7
5 0 -1 1 1
-5 0 -1 0.8 0.8
5 0 -1 0.5 0.6
-5 0 1 0.4 0.7
-5 0 1 0.1 0.7
5 0 -1 -0.4 0.7
-5 0 1 0.5 0.8
5 0 1 -0.2 0.4
-5 0 -1 0 0.8
5 0 1 0.2 0.7
5 0 1 1 1.1
6 0 1 211.98 6.8
-6 0 -1 202.98 6.9
-6 0 -1 216.78 6.8
-6 0 1 226.78 6.9
-6 0 -1 205.88 7.3
6 0 1 203.88 6.1
-6 0 1 210.48 7.3
6 0 -1 204.68 6.7
-6 0 1 215.78 7
6 0 -1 219.18 6.6
-6 0 1 210.18 7.4
6 0 -1 205.08 6.5
6 0 -1 213.08 7.4
6 0 1 206.48 6
6 0 1 201.78 7.7
-6 0 1 212.88 7
-6 0 1 211.98 6.8
6 0 -1 213.78 6.6
6 0 -1 210.18 6.4
-7 0 1 0.1 1
7 0 -1 0.1 1.1
7 0 1 -0.7 1
7 0 -1 1.4 1.1
-7 0 1 0.2 0.9
7 0 -1 -0.8 0.9
-7 0 1 -0.2 1.1
7 0 1 1.1 1
-7 0 -1 0.3 1
7 0 1 0.2 0.9
-7 0 -1 0.3 1.2
7 0 -1 0.2 0.8
7 0 -1 2.1 1.5
7 0 1 1.1 1.6
-7 0 1 -0.6 0.8
7 0 -1 0 0.9
8 0 1 62.29 4.4
-8 0 -1 60.39 4.6
8 0 1 65.49 5.2
-8 0 1 62.69 4.2
8 0 -1 60.79 4.1
-8 0 1 53.59 3.9
8 0 -1 51.99 4.6
-8 0 -1 59.19 4.2
-8 0 1 67.49 4.5
8 0 -1 71.89 5.1
8 0 -1 65.59 4
8 0 1 61.49 4.4
-9 0 -1 -0.8 1.5
-9 0 -1 0 1.4
9 0 1 0 1.7
9 0 1 1.2 2.2
-9 0 1 1.1 1.7
9 0 1 1.6 1.7
0 1 1 -1.6 0.3
0 1 -1 -1.4 0.3
0 -1 -1 -1.7 0.4
0 1 1 -2.2 0.3
0 1 -1 -2.1 0.3
0 1 -1 -2.2 0.3
0 1 1 -1.5 0.3
0 -1 1 -2 0.3
0 -1 -1 -1.3 0.3
0 -1 1 -2.5 0.4
1 -1 1 843.02 15
-1 1 1 846.62 14.1
-1 1 1 836.42 14.7
-1 1 1 748.13 15.8
-1 -1 -1 838.62 14.7
-1 -1 -1 840.22 14.7
1 1 -1 840.92 14.6
-1 1 1 840.02 14.8
-1 -1 -1 844.42 15
1 -1 1 827.22 14.5
1 1 -1 827.82 14.2
-1 -1 -1 849.32 14
-1 1 -1 850.41 14.6
1 -1 -1 834.02 14.7
-1 -1 1 846.82 14.9
1 -1 -1 837.82 14.7
-1 -1 1 851.11 14.9
1 1 1 831.22 14
1 1 1 851.01 14.6
1 1 1 836.12 14.6
-1 1 -1 857.21 14.3
1 -1 -1 840.72 14.3
-1 1 -1 856.81 14.8
2 1 -1 1294.87 23.3
-2 1 1 1352.86 23.8
2 -1 1 1349.56 24
-2 -1 -1 1350.86 22.7
-2 -1 -1 1362.16 23.5
-2 1 1 1339.27 23.5
-2 -1 -1 1315.37 23.9
2 1 -1 1346.57 22.9
2 -1 1 1340.87 23.2
2 -1 1 1317.87 22.5
2 1 -1 1331.47 23.4
-2 1 1 1369.66 22.9
-2 -1 -1 1370.76 23.6
2 1 1 1348.86 22.6
-2 1 -1 1324.97 23.4
-2 1 -1 1326.27 23.7
-2 1 -1 1343.77 23.7
2 1 1 1347.97 23.5
2 -1 -1 1341.27 23.3
-2 -1 1 1356.46 23.9
-2 -1 1 1312.87 23.5
2 -1 -1 1346.97 23.5
-2 -1 1 1367.76 22.8
-2 1 -1 1359.66 23
2 1 1 1367.06 23.2
2 -1 -1 1370.36 23.5
3 -1 1 1197.68 21.4
-3 -1 -1 1192.88 21.7
3 -1 1 1201.68 20.7
3 1 -1 1204.28 21.6
3 -1 1 1199.48 22.5
-3 -1 -1 1178.98 20.7
-3 1 1 1213.08 22.1
3 1 -1 1171.38 21
-3 1 1 1209.98 21.8
-3 -1 -1 1234.18 21.9
3 1 -1 1180.48 21.5
-3 -1 -1 1210.18 22.4
-3 1 1 1193.28 21.7
-3 1 -1 1177.88 21.4
3 -1 -1 1188.98 21.7
3 1 1 1210.68 21.3
3 1 1 1184.08 21.7
-3 -1 1 1216.48 21.1
3 -1 -1 1184.48 21.7
3 1 1 1149.48 20.7
-3 1 -1 1195.18 21.3
-3 1 -1 1195.18 22
3 -1 -1 1183.18 21.8
-3 -1 1 1186.18 21.7
-3 1 -1 1187.58 22
-3 -1 1 1221.38 22.2
-3 -1 1 1190.68 21.9
-4 -1 -1 51.29 3
-4 1 1 43.5 2.8
4 1 -1 49.9 2.5
4 1 -1 51.79 2.5
4 -1 1 47.8 3.1
-4 1 1 48.2 2.6
4 -1 1 48.8 2.5
-4 1 1 52.89 2.7
-4 -1 -1 51.39 2.6
-4 -1 -1 53.49 2.8
4 -1 1 48.8 2.1
4 1 -1 52.59 2.3
-4 -1 -1 50.39 2.2
-4 1 1 46.2 2.6
4 1 1 50.49 2.6
-4 -1 1 52.59 2.8
4 1 1 52.99 2.4
-4 -1 1 52.59 2.4
-4 1 -1 49.3 2.7
-4 -1 1 47.1 2.8
-4 -1 1 55.79 2.9
4 1 1 49.4 2.1
4 -1 -1 52.69 2.7
4 -1 -1 49.4 2.3
4 -1 -1 48.5 2.8
-4 1 -1 54.39 2.6
4 -1 -1 45.5 2.5
-4 1 -1 49.1 2.8
-4 1 -1 50.39 2.5
-4 -1 1 46.7 2.4
-5 -1 -1 188.98 6
5 1 -1 189.78 5.4
5 -1 1 187.78 5.1
-5 -1 -1 187.78 6.5
-5 1 1 182.98 5.8
5 1 -1 190.18 5.7
5 -1 1 184.88 6.7
-5 1 1 184.98 6
5 -1 1 186.18 5.7
-5 1 1 167.68 6.1
-5 -1 -1 192.08 5.9
5 1 -1 181.48 5.7
-5 1 1 185.38 6
-5 -1 -1 180.88 5.1
5 1 -1 187.38 5.7
-5 1 1 186.08 5.8
5 1 1 186.28 5.1
-5 -1 1 186.08 6.2
-5 1 -1 185.18 5.7
5 -1 -1 180.68 5.8
5 -1 -1 185.38 6.3
-5 -1 1 179.58 6.1
5 -1 -1 186.48 5.4
5 1 1 186.18 5.5
-5 -1 1 178.28 5.8
-5 1 -1 183.78 5.7
5 -1 -1 185.08 5.9
-5 1 -1 184.68 6.1
5 1 1 184.38 5.9
5 -1 -1 184.28 5.8
-5 1 -1 178.58 6.1
5 -1 -1 182.48 5.4
-5 -1 1 187.68 5.6
-6 -1 -1 101.39 4.6
6 -1 1 107.29 4
6 1 -1 104.89 4.4
-6 1 1 104.69 4.6
6 -1 1 113.29 5.6
-6 1 1 103.29 4.4
6 -1 1 110.49 4.2
6 1 -1 108.19 4.2
6 1 -1 110.99 4.4
-6 1 1 112.79 5.2
-6 1 1 105.89 4.7
-6 1 1 102.39 4.6
6 -1 1 96.59 4.4
6 1 -1 106.69 4.6
-6 -1 -1 103.59 5.1
-6 -1 -1 113.19 4.2
6 1 -1 105.49 4.4
-6 1 1 114.99 4.9
6 1 1 104.69 5.5
-6 -1 1 112.39 4.5
-6 1 -1 98.89 4.9
6 -1 -1 107.49 5.2
6 1 1 113.79 4.8
6 -1 -1 106.19 4.2
-6 -1 1 109.69 4.8
-6 -1 1 109.39 5
6 1 1 106.69 4.3
6 -1 -1 105.19 4.6
-6 1 -1 110.89 4.7
-6 1 -1 105.09 4.8
6 -1 -1 100.39 4.5
6 1 1 112.29 4
6 -1 -1 106.99 4.3
-6 -1 1 98.79 4.7
6 -1 -1 116.49 4.9
-6 1 -1 113.69 4.6
7 1 -1 98.59 4.5
-7 1 1 103.79 5.4
-7 1 1 104.99 5
7 -1 1 100.29 4.9
-7 -1 -1 92.99 4.8
-7 1 1 94.89 4.9
-7 1 1 102.89 5
7 -1 1 98.39 5.1
7 1 -1 92.79 4.6
7 1 -1 98.99 4.8
-7 -1 -1 98.79 5.4
7 1 -1 100.79 4.7
-7 1 1 104.29 5
7 -1 1 96.89 5.7
-7 1 1 102.59 4.7
7 1 -1 94.99 5.3
7 -1 -1 95.89 4.9
-7 1 -1 94.59 5
-7 -1 1 97.29 5.1
-7 1 -1 96.09 4.6
7 -1 -1 97.19 4.7
7 1 1 109.69 5.1
7 -1 -1 86.69 4.4
7 1 1 109.49 4.6
-7 1 -1 98.19 5.2
7 -1 -1 100.59 4.7
7 -1 -1 97.59 5.4
7 -1 -1 95.99 4.3
7 1 1 99.89 5.8
-7 -1 1 102.29 5
-8 1 1 0.5 1.3
8 1 -1 0.2 1.7
8 1 -1 -0.1 1
8 -1 1 0.1 1.5
8 -1 1 0.2 1.3
-8 -1 -1 0.7 1.2
8 -1 1 -1.7 1.6
8 1 -1 -1 1.1
-8 1 1 0.5 1.4
-8 1 1 0.5 1.2
-8 -1 -1 1.3 1.5
8 1 1 1 1.5
8 1 1 2.7 2
8 -1 -1 -1.4 1
8 1 1 0.8 1.4
-8 1 -1 0.4 1.1
8 -1 -1 -0.4 1.2
8 -1 -1 0.1 1.9
-8 1 -1 0.3 1.2
-8 -1 1 -1.1 1.2
-8 -1 1 1.5 1.5
9 -1 1 11.4 2.9
-9 -1 -1 13.7 2.9
9 1 -1 14.5 2.8
-9 -1 -1 13.6 2.7
9 -1 1 13.9 3.5
9 1 1 13.8 3.4
9 1 1 16 3.1
-9 1 -1 9.8 2.6
-9 -1 1 12.6 2.7
0 2 1 0.1 0.5
0 2 1 0.1 0.3
0 -2 1 -0.2 0.6
0 2 -1 0 0.3
0 2 1 0 0.4
0 -2 -1 0.4 0.4
0 2 1 -0.1 0.4
0 -2 -1 0.3 0.6
0 2 -1 0.1 0.4
0 2 -1 -0.1 0.4
0 -2 1 -0.1 0.4
0 -2 1 0 0.6
0 -2 -1 0.2 0.6
1 2 -1 3824.92 63.79
1 2 -1 3866.01 63.89
-1 -2 -1 3879.01 63.89
-1 -2 -1 3865.61 63.89
1 2 -1 3807.92 63.19
-1 -2 -1 3878.41 64.39
-1 2 1 3858.31 63.99
1 -2 1 3847.91 64.09
-1 2 1 3788.12 64.09
1 -2 1 3919.21 63.69
1 -2 1 3811.12 64.39
1 -2 -1 3888.41 64.19
-1 2 -1 3964 64.09
1 -2 -1 3877.81 63.79
1 2 1 3891.11 63.89
1 2 1 3889.61 63.79
1 2 1 3819.02 63.99
-1 -2 1 3904.21 64.19
-1 -2 1 3895.81 62.99
-1 2 -1 3892.61 64.09
-1 2 -1 3789.32 63.99
-1 -2 1 3901.41 64.29
-1 -2 1 3940.21 64.19
-2 2 1 727.93 13.5
-2 2 1 716.13 13.6
2 2 -1 702.13 12.4
-2 -2 -1 700.03 15.1
-2 2 1 719.73 12.3
2 -2 1 723.63 13.7
2 2 -1 705.53 13.3
2 -2 1 702.43 12.9
2 -2 1 699.83 13.9
2 2 -1 702.23 13.2
-2 -2 -1 714.23 13.5
-2 -2 -1 722.33 14
-2 -2 1 711.63 13.6
-2 -2 1 700.73 13.6
2 -2 -1 715.73 13.6
-2 -2 1 704.33 12.4
-2 2 -1 707.73 13.4
-2 -2 1 719.03 13.8
2 2 1 706.03 12.6
-2 2 -1 716.23 13.6
2 2 1 706.93 13.4
2 2 1 705.53 13.2
2 -2 -1 714.53 13.3
2 -2 -1 708.73 12.3
-3 -2 -1 479.75 10.8
3 2 -1 473.05 9.7
3 -2 1 459.55 8.7
-3 2 1 479.05 9.1
3 -2 1 466.55 10.6
-3 -2 -1 469.85 9.8
3 2 -1 466.65 9
-3 -2 -1 480.05 10.2
3 -2 1 457.55 9.5
-3 -2 -1 472.25 8.7
3 2 -1 480.05 9.9
-3 2 1 468.75 10.3
-3 2 1 468.65 10.1
-3 2 -1 468.95 10.3
3 -2 -1 470.25 10.2
-3 -2 1 473.85 9.1
3 -2 -1 476.45 10.1
-3 2 -1 461.05 9.9
-3 -2 1 480.15 10.5
-3 -2 1 465.05 10.1
3 2 1 485.05 9.8
3 -2 -1 455.65 9
3 2 1 469.65 9.1
3 2 1 474.75 10
-3 -2 1 482.35 10.4
-3 2 -1 479.85 9
4 -2 1 133.99 4.2
-4 2 1 139.59 4.9
-4 -2 -1 127.69 5
-4 2 1 127.69 3.8
4 -2 1 130.09 4.8
4 2 -1 126.49 3.7
4 -2 1 121.79 5
4 -2 1 123.99 3.5
-4 -2 -1 133.09 4.6
4 2 -1 128.79 4.3
4 2 -1 130.99 4.2
-4 -2 -1 125.09 3.5
-4 -2 -1 130.39 4.3
-4 2 1 128.79 4.6
-4 2 1 127.29 4.5
4 -2 -1 133.59 4.7
-4 -2 1 126.19 3.9
-4 2 -1 127.99 4.4
-4 2 -1 129.59 3.7
-4 2 -1 130.49 4.7
-4 -2 1 135.59 4.7
-4 2 -1 131.29 4.4
4 -2 -1 130.29 3.8
4 2 1 128.39 4.5
-4 -2 1 134.09 4.8
4 2 1 135.69 4.3
4 -2 -1 130.59 4.7
4 2 1 130.59 3.7
-4 -2 1 128.89 4.7
-5 2 1 40 2.3
5 2 -1 38.2 2.1
5 -2 1 32.4 2.3
5 -2 1 33.8 1.9
-5 -2 -1 34.2 1.9
-5 2 1 39.4 2.8
5 2 -1 37.4 2.4
-5 2 1 33.6 2.5
-5 -2 -1 32.6 2.9
5 -2 1 31.4 2.9
-5 -2 -1 36.1 2.4
5 -2 1 33 2.7
-5 -2 -1 31.7 2.5
-5 2 1 31.2 2.4
5 2 -1 31.5 2.2
-5 -2 1 28.4 2.5
-5 -2 1 34.6 2.2
5 -2 -1 30.6 2.5
-5 -2 1 32.2 2.7
5 2 1 32.8 2.2
-5 2 -1 32.2 2.3
5 2 1 34.4 2.5
5 -2 -1 34.6 2.2
5 -2 -1 35.2 2.5
5 2 1 35.6 1.9
-5 2 -1 34.9 2.5
5 -2 -1 34.7 2.8
-5 2 -1 33.4 2.5
5 2 1 38.4 2.1
-6 2 1 159.98 6.3
-6 2 1 159.38 6.1
6 2 -1 155.68 5.9
6 2 -1 158.38 5.7
-6 -2 -1 156.48 5.7
6 -2 1 153.08 5.5
6 2 -1 166.08 5.5
-6 -2 -1 151.98 6.5
6 2 -1 167.18 5.6
-6 2 1 149.88 5.9
6 -2 1 156.48 6.7
-6 -2 -1 156.68 6
6 -2 1 143.99 6
-6 -2 -1 156.18 5
-6 2 -1 154.58 5.7
6 -2 -1 145.49 5
6 2 1 155.58 5.1
-6 -2 1 160.38 5.4
-6 -2 1 157.18 6
6 -2 -1 155.38 5.9
-6 2 -1 169.68 5.9
-6 2 -1 151.18 6.1
6 2 1 161.78 6
6 -2 -1 151.78 6.3
6 -2 -1 152.78 5.2
6 -2 -1 156.58 6
6 2 1 158.08 5.5
-6 -2 1 156.58 6.3
-7 -2 -1 109.09 5.8
-7 2 1 115.39 5.7
7 2 -1 103.79 4.9
-7 2 1 110.39 5.4
-7 2 1 97.89 5
7 -2 1 113.39 6.2
7 2 -1 104.09 4.6
7 -2 1 98.19 5.3
-7 -2 -1 95.09 4.8
7 2 -1 111.89 5.2
7 -2 1 113.09 5.1
-7 2 -1 109.69 5.1
7 -2 -1 106.19 5.1
7 -2 -1 110.09 5.1
-7 2 -1 102.89 5.4
-7 2 -1 117.69 5.5
7 2 1 101.29 4.7
7 2 1 99.99 5.1
7 -2 -1 100.69 5.2
-7 -2 1 119.79 5.8
-7 -2 1 104.09 4.7
7 -2 -1 110.49 5.7
-7 -2 1 118.89 5.6
-8 2 1 3.6 1.9
8 -2 1 6 2.1
8 2 -1 5.2 1.8
-8 2 1 3.6 1.6
-8 -2 -1 2.5 1.6
8 -2 1 5.6 1.8
-8 -2 -1 4.4 1.6
8 -2 1 8 2.7
8 2 -1 5.1 1.6
8 2 -1 2.7 1.9
8 -2 -1 10.1 2.7
8 2 1 7.6 2.6
-8 2 -1 5.3 1.9
8 2 1 4.2 1.6
-8 -2 1 4.3 1.8
8 -2 -1 3.5 1.6
8 2 1 6.1 2
-8 2 -1 4.4 1.7
-8 -2 1 5.6 2
8 -2 -1 2.6 1.6
9 -2 1 15.4 3.3
9 2 -1 10.5 2.3
9 2 -1 13.4 3.5
9 -2 1 13.4 3.4
-9 2 1 9.8 2.5
-9 -2 -1 13.9 3
9 2 -1 12.6 2.7
-9 -2 1 10.4 2.6
9 2 1 18.5 3.3
9 2 1 21.6 4.1
-9 -2 1 16.6 3
9 -2 -1 19.4 3.3
-9 2 -1 13 3.3
-9 2 -1 10.8 2.6
0 -3 1 0.9 0.6
0 3 1 0.4 0.6
0 -3 1 0.5 0.8
0 3 -1 0.3 0.6
0 3 1 1.2 0.5
0 -3 1 0.3 0.7
0 3 -1 0.7 0.5
0 -3 -1 0.6 0.8
0 3 -1 0.5 0.5
0 -3 -1 1.2 0.5
0 3 1 0.6 0.5
0 3 1 0.7 0.5
0 -3 -1 0.9 0.7
1 3 -1 122.79 2.8
-1 3 1 124.89 3.4
-1 -3 -1 126.89 3.9
-1 3 1 128.69 3.6
1 -3 1 124.29 3.2
1 3 -1 124.99 3.3
-1 -3 -1 126.39 3.6
1 -3 1 126.69 3.6
1 -3 1 124.99 3.9
1 3 -1 123.39 3.4
-1 -3 -1 122.09 3.4
-1 -3 1 122.69 2.8
1 3 1 132.59 3.6
-1 3 -1 125.89 3.5
1 -3 -1 131.79 3.7
-1 -3 1 118.79 3.8
-1 3 -1 128.39 3.5
1 3 1 124.69 3.4
-1 -3 1 123.39 3.7
-1 3 -1 124.49 2.6
1 -3 -1 128.69 3.7
-1 3 -1 122.49 3.5
1 3 1 126.69 3.3
2 -3 1 1407.76 24.5
2 3 -1 1424.66 25.2
2 3 -1 1411.36 23.9
-2 3 1 1396.56 25.5
-2 -3 -1 1443.06 26.1
2 -3 1 1422.66 25.9
2 3 -1 1426.16 25.1
2 -3 1 1453.95 25.7
-2 3 1 1446.66 24.9
-2 3 1 1477.55 25.5
-2 -3 -1 1405.36 25.3
-2 -3 1 1433.26 24.1
2 3 1 1431.16 25.3
-2 3 -1 1423.86 25.4
2 3 1 1445.76 25.3
-2 3 -1 1418.96 25.7
-2 -3 1 1433.36 25.8
-2 3 -1 1428.16 25.1
2 3 1 1416.36 24.6
-2 -3 1 1411.66 25.6
2 -3 -1 1412.56 25.3
2 -3 -1 1431.76 25.7
3 3 -1 46.5 2.2
-3 3 1 45.1 2.5
3 -3 1 45.8 2.7
-3 -3 -1 47.6 3
-3 3 1 46.6 2.5
3 3 -1 41.9 1.5
3 3 -1 43.8 2.3
-3 3 1 42.6 2.1
3 -3 1 44.5 2.8
3 -3 1 41.1 2
-3 -3 -1 41 2.4
3 -3 -1 45.3 2.5
-3 3 -1 44.6 2.5
3 3 1 46.7 1.9
-3 -3 1 41.8 2.5
-3 3 -1 46 2.4
-3 -3 1 45.1 2.8
-3 3 -1 41.3 2.5
-3 -3 1 42.9 1.8
-3 3 -1 43.5 1.6
3 -3 -1 42.9 1.6
3 3 1 45.9 2.3
3 3 1 43.5 2.4
3 -3 -1 41.7 2.5
4 -3 1 4.3 1.3
4 -3 1 4.5 1.5
-4 3 1 5.9 1.1
4 3 -1 5.9 0.8
-4 -3 -1 6.3 1.6
-4 3 1 6.4 1.3
4 -3 1 4.8 1.1
-4 -3 -1 7.7 1.5
4 3 -1 6 1.1
4 3 -1 5.4 1.2
4 -3 1 6.4 0.8
-4 -3 -1 7.3 0.8
-4 3 1 6.9 1.4
4 3 1 4.1 1.1
4 -3 -1 4.3 1.3
-4 3 -1 5.2 0.9
-4 3 -1 5.2 1.3
-4 -3 1 7.5 1
4 -3 -1 4.9 0.9
-4 -3 1 10.5 1.8
4 3 1 5.5 1.2
-4 -3 1 8.2 1.6
4 3 1 5.8 0.7
4 3 1 4.8 0.9
-4 3 -1 7.2 1.4
4 -3 -1 7.3 1.4
5 -3 1 140.79 5.6
-5 -3 -1 138.49 5.4
-5 -3 -1 145.29 6
5 -3 1 134.89 5.8
5 -3 1 145.29 4.1
-5 3 1 144.09 5.4
5 3 -1 143.09 4.1
5 -3 1 149.59 4.9
-5 -3 -1 138.49 4
5 3 -1 135.39 4.8
5 3 -1 146.39 5.2
-5 3 1 150.28 5.6
-5 3 1 149.59 5.1
5 -3 -1 156.48 5.7
5 3 1 146.19 5.1
-5 -3 1 146.79 4.6
-5 3 -1 143.09 5.2
-5 -3 1 143.89 5.7
5 3 1 149.09 5.4
5 -3 -1 150.28 4.5
-5 -3 1 141.79 5.5
5 -3 -1 146.19 5.6
-5 3 -1 138.09 5.5
-5 3 -1 148.49 4.3
5 3 1 152.48 4.5
-6 3 1 88.29 4.7
-6 -3 -1 86.99 5
6 3 -1 95.39 4.6
6 3 -1 98.29 4.5
-6 -3 -1 98.99 4.8
-6 3 1 96.09 4.7
-6 3 1 94.39 4.3
6 -3 1 93.79 4.9
6 3 -1 99.79 4.2
6 -3 1 102.59 4.3
6 -3 1 97.49 5.3
-6 -3 1 98.99 4
-6 3 -1 93.29 4.5
6 -3 -1 97.39 5.1
6 -3 -1 86.19 4.6
-6 -3 1 90.39 4.7
6 -3 -1 96.29 3.9
-6 3 -1 92.39 4.8
-6 -3 1 88.29 4.9
6 -3 -1 82.89 4.4
6 3 1 92.69 4.3
6 3 1 88.49 4.5
-7 3 1 80.09 4.8
-7 -3 -1 79.99 4.8
7 -3 1 83.89 5
7 3 -1 87.29 4.8
7 -3 1 84.49 5.5
7 3 -1 77.69 4.3
-7 3 1 79.49 4.7
-7 -3 -1 84.79 5.3
7 3 -1 86.59 4.2
-7 3 -1 81.99 4.6
-7 -3 1 89.69 5
-7 3 -1 91.79 5.1
7 -3 -1 78.99 4.8
7 3 1 81.59 4.3
-7 3 -1 87.99 4.7
7 -3 -1 79.99 4.7
7 3 1 76.09 4.6
-7 -3 1 83.89 5.1
7 -3 -1 84.39 5.3
8 -3 1 -2.4 2.1
-8 3 1 0.1 1.3
-8 -3 -1 0 1.6
-8 3 1 -0.1 1.5
8 -3 1 -0.7 1.5
8 3 -1 -0.2 1.2
8 3 -1 0.6 1.3
-8 3 -1 1.9 1.5
8 3 1 -0.9 1.3
-8 -3 1 1.1 1.5
8 -3 -1 1.6 1.5
8 -3 -1 0 2.4
8 3 1 -0.2 1.1
-8 -3 1 1.4 1.7
8 -3 -1 1.2 1.5
8 -3 -1 0 1.3
-8 3 -1 -0.9 1.1
-9 3 1 6.8 2.3
-9 -3 -1 8.1 2.5
9 3 -1 9.8 2.2
9 3 -1 6.6 2.6
9 -3 1 5.9 2.6
9 -3 1 11.9 2.7
9 -3 1 14.5 4
9 3 -1 9.7 2.5
9 -3 -1 8.8 2.5
9 3 1 10.4 2.2
9 3 1 6.1 2.3
-9 3 -1 9.9 2.5
9 -3 -1 8.1 2.4
9 3 1 10.8 3.2
-9 -3 1 8.5 2.6
-9 3 -1 9.1 2.4
-9 -3 1 9.3 2.6
0 -4 1 -0.8 0.7
0 -4 -1 -0.9 0.6
0 -4 -1 -0.5 0.8
0 4 1 -0.4 0.4
0 4 -1 -0.3 0.4
0 4 1 -0.3 0.4
0 4 -1 0.2 0.5
0 -4 -1 0.2 0.5
0 4 1 -0.3 0.5
0 4 -1 -0.4 0.5
0 -4 1 -1.3 0.6
-1 -4 -1 269.97 6.4
1 -4 1 277.97 5.9
1 4 -1 270.87 6.1
-1 4 1 282.37 6.6
-1 -4 -1 271.87 6.2
1 4 -1 269.87 5.5
-1 -4 -1 288.27 7.1
-1 4 1 274.07 6.3
-1 -4 -1 274.77 5.3
1 -4 1 280.57 7.1
1 4 -1 275.57 6.4
1 -4 1 286.77 6.5
-1 -4 1 276.67 7
-1 4 -1 277.77 5.4
1 -4 -1 288.07 6.8
1 -4 -1 279.87 6.7
1 4 1 278.47 6.3
-1 4 -1 279.67 6.4
1 4 1 275.07 6.4
-1 4 -1 290.57 6.6
-1 -4 1 268.87 6.5
-1 -4 1 285.77 5.7
1 4 1 280.57 5.3
2 -4 1 180.08 5.6
-2 -4 -1 176.18 5.1
2 4 -1 189.08 5
2 -4 1 176.88 5.2
-2 4 1 187.98 5.2
2 4 -1 191.98 5
2 -4 1 179.38 4.4
-2 4 1 182.88 5.2
2 4 -1 183.68 3.8
-2 4 1 186.28 4.6
-2 -4 -1 189.18 5.8
-2 4 -1 185.98 5
2 4 1 183.08 5.1
-2 4 -1 187.58 5.1
-2 -4 1 183.28 4.1
2 4 1 184.78 4.6
2 -4 -1 177.28 5.2
2 -4 -1 175.38 5.3
-2 -4 1 181.68 5.5
-2 -4 1 180.28 5.2
3 -4 1 236.98 7
3 4 -1 234.88 6.1
3 -4 1 237.28 6.8
-3 -4 -1 241.18 6.6
-3 4 1 234.78 6.6
-3 4 1 242.88 6.6
-3 -4 -1 254.87 7.4
-3 4 1 238.78 5.9
3 4 -1 242.78 6.4
3 -4 1 222.48 5.5
3 4 -1 238.68 4.8
3 4 1 242.18 6.5
-3 -4 1 237.38 5.3
3 -4 -1 238.28 6.5
-3 -4 1 232.58 6.7
-3 4 -1 248.78 5
-3 -4 1 240.88 7
3 -4 -1 229.08 4.8
3 4 1 247.38 6.4
-3 4 -1 240.68 6.8
-3 4 -1 241.88 6.6
3 4 1 241.18 5.8
-3 4 -1 242.88 6.3
3 -4 -1 236.38 6.8
-4 4 1 154.48 5.5
4 -4 1 163.08 5.9
-4 -4 -1 169.18 5.7
4 -4 1 163.48 6
-4 4 1 166.98 5.7
-4 4 1 165.48 5
-4 -4 -1 157.08 6.2
4 4 -1 171.58 3.9
4 4 -1 157.78 5.3
4 4 -1 172.18 5.1
4 -4 1 168.48 4.7
-4 4 -1 166.88 5.6
4 -4 -1 164.38 4.2
4 4 1 162.28 5.5
-4 4 -1 170.28 5.3
4 -4 -1 162.08 5.6
4 -4 -1 170.78 5.9
4 4 1 167.08 5.4
-4 4 -1 170.18 4.2
-4 -4 1 172.08 6.2
-4 4 -1 163.88 5.8
-4 -4 1 167.98 5.8
4 4 1 163.88 4.7
-4 -4 1 167.18 4.5
-5 -4 -1 163.78 6.1
5 -4 1 156.48 6.2
-5 -4 -1 169.58 6.7
5 4 -1 153.88 5.2
-5 4 1 174.58 6.2
5 -4 1 158.78 6.4
5 4 -1 165.38 5.8
-5 4 1 169.78 6.2
-5 4 1 166.18 5.3
5 -4 1 165.28 5.2
-5 -4 1 162.98 6.5
-5 4 -1 160.58 6.2
-5 -4 1 166.18 4.9
5 -4 -1 160.58 6.1
-5 -4 1 153.88 6
5 -4 -1 153.28 6
5 4 1 170.78 4.9
-5 4 -1 159.58 5.8
5 4 1 165.88 5.9
-5 4 -1 171.88 5.9
5 4 1 160.68 5.6
-6 4 1 169.28 6.6
-6 -4 -1 162.78 7.1
6 4 -1 153.28 5.5
6 -4 1 164.58 7.1
6 4 -1 165.98 6.1
-6 -4 -1 169.88 6.6
-6 4 1 173.08 5.9
-6 4 1 162.48 6.6
6 4 -1 149.59 6.1
6 -4 1 176.08 7
-6 4 -1 168.08 6.8
6 4 1 171.68 6.2
6 -4 -1 153.38 6.4
-6 4 -1 154.58 6.3
6 -4 -1 170.78 6.7
-6 -4 1 168.38 6.7
6 4 1 162.38 6.4
6 -4 -1 153.38 6.5
-6 -4 1 170.38 7
-7 4 1 2.7 1.6
-7 -4 -1 7.5 2.2
7 4 -1 3.5 1.6
7 -4 1 3.9 2.2
-7 4 1 3.1 1.6
7 4 -1 2.6 1.3
7 -4 1 0.7 1.7
-7 -4 -1 3.6 1.9
7 4 -1 2.8 1.2
7 -4 -1 3.5 1.7
-7 -4 1 3.8 1.8
7 4 1 2.5 1.5
7 -4 -1 -0.9 1.2
-7 4 -1 3.8 1.7
-7 -4 1 4.3 1.9
7 -4 -1 1.4 1.9
-7 4 -1 2.1 1.4
7 4 1 2.6 1.3
-8 4 1 36.8 3.8
8 -4 1 30.7 4.4
-8 -4 -1 34.1 4.2
8 4 -1 36.5 3.5
8 4 -1 37.3 3.7
-8 4 1 34.1 3.7
8 -4 1 44.7 4.4
-8 -4 1 42.8 4.1
-8 4 -1 34.8 3.7
-8 4 -1 33.2 3.6
8 -4 -1 36.5 3.9
8 -4 -1 30.7 3.7
8 4 1 33.4 3.7
8 4 1 41 3.5
-8 -4 1 42.8 4.4
9 -4 1 26.9 4.8
9 -4 1 23 3.9
-9 4 1 17.5 3.3
9 4 -1 23.6 3.5
-9 -4 -1 21.4 3.9
9 4 -1 15.3 2.9
9 -4 1 25.7 3.7
9 4 1 19.5 3.4
9 -4 -1 17.6 3.3
9 -4 -1 23.8 3.8
-9 -4 1 23.1 3.7
-9 -4 1 16 3.1
-9 4 -1 21.6 3.6
9 4 1 19.9 3.1
0 5 -1 0.3 0.5
0 5 1 0 0.6
0 -5 -1 -0.3 0.9
0 5 1 0.4 0.5
0 -5 -1 0.4 0.8
0 5 -1 0.3 0.6
0 5 -1 -0.1 0.5
0 -5 1 0.1 0.7
0 -5 -1 0.7 0.6
0 5 1 -0.5 0.5
0 -5 1 0.4 0.9
1 5 -1 43.6 1.7
-1 5 1 45 2.4
-1 -5 -1 39.5 2.7
1 5 -1 39.4 2.2
1 -5 1 40.7 2.8
1 -5 1 39.5 2.3
-1 -5 -1 40.7 2.2
-1 5 1 39.7 2.1
-1 -5 -1 41.3 2.1
1 5 -1 44 2.1
1 -5 1 40.2 1.9
-1 -5 1 41.9 2.8
-1 5 -1 39.8 1.6
-1 5 -1 43.5 2.3
-1 -5 1 43.5 1.9
-1 5 -1 40.2 2.1
1 5 1 39.2 1.5
1 5 1 43.2 2.2
-1 -5 1 36.8 2.2
1 -5 -1 43.9 2.5
1 -5 -1 41.9 2.6
1 5 1 47.1 2.3
2 5 -1 21.7 1.1
-2 5 1 29.1 2
2 5 -1 24.7 1.8
2 -5 1 25.4 2.4
-2 5 1 22.8 1.9
2 -5 1 25.2 2
-2 5 1 25.6 1.6
2 5 -1 21.1 1.7
2 -5 1 24.4 1.5
-2 -5 -1 21.7 2.3
-2 -5 -1 26.3 2
2 5 1 21.4 1.7
-2 5 -1 22.8 1.9
-2 5 -1 26.4 1.9
-2 5 -1 22.9 1.1
-2 -5 1 27.2 2.2
-2 -5 1 24.7 2.4
2 -5 -1 26.8 2.2
2 -5 -1 23 2.1
2 5 1 23.8 1.9
-2 -5 1 22.4 1.4
3 -5 1 142.49 5.3
3 5 -1 146.69 4.7
-3 5 1 152.38 4.5
-3 -5 -1 150.98 5.1
3 -5 1 148.49 4.1
-3 5 1 140.09 5
3 5 -1 146.59 4.9
-3 -5 -1 162.18 6.4
-3 -5 -1 153.28 5.8
-3 5 1 148.69 5.1
3 -5 1 148.89 5.6
-3 5 -1 153.58 5.1
-3 -5 1 155.18 4
3 -5 -1 151.88 5.3
-3 -5 1 155.18 5.7
3 5 1 149.69 4.4
3 5 1 151.98 5
3 -5 -1 149.99 5.4
3 5 1 151.68 5
-3 -5 1 139.19 5.1
-3 5 -1 158.68 5
-4 5 1 48.1 3.1
-4 -5 -1 52.49 3.2
4 5 -1 54.99 2.8
4 -5 1 47.2 3.2
-4 -5 -1 46.5 3.5
-4 -5 -1 49.1 2.7
4 5 -1 51.29 2.9
4 -5 1 52.99 3.6
4 -5 1 48.1 2.4
-4 5 1 49.8 3.1
-4 5 1 51.89 2.6
-4 5 -1 55.29 3
4 -5 -1 53.49 3.4
4 5 1 52.79 3.1
-4 -5 1 45.2 3.4
4 5 1 54.39 2.6
4 -5 -1 58.19 3.4
-4 5 -1 51.29 3.1
-4 -5 1 51.79 2.3
4 5 1 48.9 2.9
-4 -5 1 51.99 3.3
5 -5 1 89.99 4.8
-5 -5 -1 92.19 4.7
-5 5 1 95.69 4.7
-5 5 1 93.69 3.9
5 5 -1 94.09 4.4
-5 -5 -1 94.79 5.2
-5 -5 -1 98.69 4.1
5 -5 1 98.39 5.2
-5 5 1 90.09 4.6
5 5 -1 89.89 3.9
5 -5 -1 93.89 4.8
-5 -5 1 82.79 4.9
-5 -5 1 85.89 4.6
-5 5 -1 87.29 4.4
5 5 1 95.09 4.3
-5 5 -1 96.69 4.8
-5 5 -1 93.09 4.3
5 -5 -1 88.59 4.7
5 5 1 90.19 4.4
5 5 1 91.89 3.7
6 -5 1 81.09 4.9
-6 5 1 73.89 4.5
-6 5 1 74.29 4.5
-6 -5 -1 81.49 4
-6 -5 -1 73.89 5
6 5 -1 73.79 4.2
-6 -5 -1 79.89 4.7
6 5 -1 82.69 3.9
6 -5 1 80.39 5.1
-6 5 -1 78.99 4.3
6 5 1 69.79 4.3
6 5 1 65.29 3.9
6 -5 -1 80.39 4.8
-6 5 -1 73.39 4.4
6 -5 -1 80.99 4.9
-6 -5 1 74.09 4.9
6 -5 -1 70.59 4.5
-6 -5 1 74.99 4.7
-6 5 -1 76.29 4.6
-7 5 1 152.38 6.9
7 5 -1 148.09 5.9
7 -5 1 164.48 7.7
7 -5 1 133.19 6.8
7 5 -1 152.28 6.8
7 5 -1 155.08 6.5
-7 -5 -1 144.39 7.4
-7 -5 -1 158.88 7.1
-7 5 1 150.38 7
7 5 1 156.68 6.5
-7 -5 1 154.58 7.3
7 -5 -1 156.58 7.2
7 5 1 172.38 7.1
7 -5 -1 145.59 6.9
7 -5 -1 150.68 7.1
-7 5 -1 148.99 6.7
-7 -5 1 143.29 6.8
8 -5 1 25.6 3.8
8 5 -1 25.4 3.3
-8 5 1 24.4 3.5
-8 5 1 24.2 3.5
8 -5 1 21.1 3.9
8 5 -1 27.7 3.3
-8 -5 -1 26.5 3.8
-8 -5 -1 25 4
-8 -5 1 30.1 4
8 -5 -1 29.4 3.8
-8 5 -1 29.6 3.5
8 5 1 26.9 3.3
-8 -5 1 35.2 4.1
8 -5 -1 29.3 3.8
8 5 1 20.5 3.3
0 -6 -1 -0.7 0.6
0 6 -1 0 0.7
0 6 1 0 0.5
0 -6 1 0 0.8
0 -6 1 0.8 1
0 -6 -1 0.4 0.8
0 6 1 0.3 0.7
0 6 -1 0 0.6
0 -6 -1 0 1
0 6 -1 -0.1 0.5
0 6 1 -1.1 0.5
-1 -6 -1 155.18 5.5
1 6 -1 144.89 4.8
-1 -6 -1 144.19 4.4
-1 6 1 151.78 4.6
1 -6 1 144.99 4.2
-1 -6 -1 153.18 4.8
1 6 -1 149.29 3.9
1 6 -1 154.48 4.5
1 -6 1 137.09 5.3
-1 6 1 145.99 4.9
1 -6 1 151.78 4.9
-1 6 -1 151.68 4.9
-1 6 -1 150.28 3.9
1 -6 -1 150.88 5
-1 6 -1 156.08 4.6
-1 -6 1 141.99 5.4
-1 -6 1 153.18 4.8
1 6 1 147.59 3.7
1 -6 -1 143.89 3.4
1 6 1 141.99 4.6
-1 -6 1 148.89 4.2
1 6 1 157.18 4.8
1 -6 -1 151.88 5.3
-2 6 1 34.7 2.3
2 -6 1 39.6 2.7
-2 -6 -1 30.5 2.3
-2 6 1 34.5 2.4
-2 6 1 36.3 2
-2 -6 -1 30 2.7
2 6 -1 33 2.2
2 -6 1 35.3 1.9
2 -6 1 35.9 2.9
2 6 -1 34.8 1.4
2 6 -1 34.8 2.2
2 6 1 36.4 2.4
2 6 1 32.7 2.2
-2 6 -1 30.9 2.2
-2 -6 1 34.4 2.5
-2 -6 1 32.9 1.8
-2 6 -1 37.6 2.4
2 -6 -1 29.5 2.6
-2 6 -1 35.7 1.6
2 -6 -1 36.4 2.6
-2 -6 1 29.5 2.7
-3 6 1 111.29 4.5
-3 -6 -1 101.29 5
3 -6 1 110.39 3.4
-3 -6 -1 115.49 4.2
-3 6 1 110.79 4.6
-3 -6 -1 118.29 4.6
3 6 -1 103.19 4.1
3 -6 1 107.39 4.7
3 -6 1 107.89 5
3 6 -1 112.59 4.3
-3 6 1 120.69 3.9
3 6 1 105.79 3.9
-3 6 -1 108.69 4.4
3 -6 -1 114.49 4.8
-3 6 -1 113.29 3
-3 -6 1 108.29 4.5
3 6 1 111.89 4.3
-3 -6 1 113.39 3.5
-3 -6 1 114.29 5.1
-3 6 -1 106.59 4.3
3 6 1 107.39 4.4
3 -6 -1 105.09 4.7
-4 6 1 16.1 2
4 6 -1 13 1.8
4 6 -1 16.1 1.7
-4 6 1 16.1 2
4 -6 1 14.6 2.5
-4 -6 -1 16.5 1.9
4 -6 1 10.6 2
-4 -6 -1 13.3 2.1
-4 6 1 14.3 1.6
-4 -6 -1 12.7 2.5
4 6 1 13.8 1.5
-4 -6 1 13.7 2.4
4 6 1 10.8 1.8
-4 6 -1 17.9 2
-4 6 -1 14.6 1.9
-4 -6 1 15.5 1.5
4 -6 -1 14.2 2.3
-4 -6 1 11.5 2
4 -6 -1 12.4 2.1
4 6 1 12.7 1.8
5 6 -1 93.39 4.2
5 -6 1 95.99 5.4
-5 6 1 93.39 4.8
5 6 -1 95.69 4.6
-5 -6 -1 98.39 4.2
-5 6 1 98.19 4.9
5 -6 1 91.69 5
-5 -6 -1 92.89 4.8
-5 -6 -1 97.59 5.6
-5 6 -1 99.49 4.6
-5 -6 1 94.59 5
5 6 1 82.99 4.4
-5 6 -1 95.59 4.7
5 -6 -1 90.79 5
5 6 1 105.09 4.9
5 6 1 103.89 4.1
-5 -6 1 85.49 5.2
5 -6 -1 92.69 5
-6 -6 -1 1.2 1.7
-6 -6 -1 3.7 1.7
6 -6 1 3.5 2.1
-6 6 1 4.5 1.7
6 6 -1 3.8 1.2
6 6 -1 3.7 1.5
-6 6 1 2.7 1.5
6 -6 1 1.2 1.5
-6 6 -1 3.5 1.4
6 6 1 3.8 1.5
6 6 1 4.4 1.6
-6 -6 1 2.8 1.8
-6 6 -1 2.7 1.6
-6 -6 1 2.8 2
6 -6 -1 4.3 1.9
6 -6 -1 1.7 1.7
7 -6 1 34.4 3.8
-7 -6 -1 30.5 3.8
7 6 -1 34 3.4
-7 6 1 33.3 3.6
7 6 -1 37.1 3.7
-7 -6 -1 33.3 4.1
-7 6 1 33.9 3.6
7 -6 1 27.7 4.2
-7 -6 1 24.5 3.7
-7 -6 1 35.2 3.9
-7 6 -1 33.4 3.3
7 -6 -1 31.9 3.8
7 -6 -1 32.4 3.7
7 6 1 25.2 3.2
7 -6 -1 26.9 3.9
-7 6 -1 27.4 3.3
7 6 1 31.6 3.4
-8 -6 -1 4.9 2.3
-8 6 1 5 2.3
-8 6 1 4.1 2.1
-8 -6 -1 5.7 2.6
8 -6 1 0.5 2.5
8 -6 1 3.8 2.3
8 6 -1 1.1 1.7
8 6 -1 7.9 2.4
8 6 1 4.5 2.1
8 -6 -1 6.6 2.4
-8 -6 1 4.1 2.2
8 6 1 3.5 1.9
8 -6 -1 3.6 2.2
-8 -6 1 5.4 2.5
-8 6 -1 3.7 2.1
0 7 -1 -0.2 0.7
0 7 1 0 0.6
0 7 -1 -0.3 0.6
0 7 1 0.3 0.7
0 -7 1 -0.9 0.8
0 -7 -1 -0.5 1.1
0 7 1 0.3 0.7
0 -7 -1 -0.3 0.9
0 -7 -1 0.6 0.7
0 -7 1 -0.5 1.1
0 7 -1 0 0.6
1 -7 1 146.39 5.1
-1 -7 -1 145.49 5
-1 -7 -1 146.69 5.8
-1 7 1 148.69 5.2
1 -7 1 147.49 4.4
-1 7 1 146.19 4.8
1 7 -1 155.28 4.8
1 7 -1 149.88 4.1
-1 -7 -1 144.09 4.6
1 -7 1 144.19 5.8
1 7 -1 148.99 5.2
-1 -7 1 147.39 4.5
-1 7 -1 145.79 4.8
1 7 1 147.19 3.9
1 7 1 153.48 5
-1 7 -1 154.98 4.3
-1 -7 1 155.28 5
-1 7 -1 147.69 5.2
1 -7 -1 153.08 5.7
1 -7 -1 143.39 3.6
1 7 1 139.69 4.9
1 -7 -1 157.08 5.4
-1 -7 1 144.29 5.8
-2 -7 -1 1.7 1.4
-2 7 1 4.3 1.2
-2 7 1 2.8 0.9
2 7 -1 1.1 0.7
-2 7 1 2.2 0.9
2 7 -1 3 1
2 -7 1 2.5 1.4
-2 -7 -1 1.8 1.1
2 -7 1 4.4 1.3
2 -7 1 3.4 1
2 -7 -1 2 1.3
-2 -7 1 2.8 0.9
-2 7 -1 3.4 0.8
2 -7 -1 2 1.2
-2 7 -1 2.2 1
-2 -7 1 2.5 1.3
-2 7 -1 3.1 1
2 7 1 3.1 1.1
2 7 1 1.7 0.8
-2 -7 1 0.8 1.3
3 -7 1 109.29 4.9
3 7 -1 102.89 4.3
-3 7 1 116.59 4.9
-3 -7 -1 103.29 5.4
-3 -7 -1 115.09 4.3
3 7 -1 113.69 4.4
-3 7 1 112.89 4
3 -7 1 111.59 5.3
-3 -7 -1 105.09 4.6
-3 7 1 107.39 4.6
3 -7 -1 106.69 5
-3 7 -1 103.39 4.5
-3 -7 1 109.89 4.8
3 7 1 120.19 4.6
3 7 1 115.29 4.4
-3 -7 1 113.09 3.7
3 7 1 107.79 4.6
-3 7 -1 117.19 4.7
3 -7 -1 118.09 5.1
-3 -7 1 100.39 5.2
-4 -7 -1 62.49 3.9
4 7 -1 59.69 3.5
4 7 -1 60.49 3.3
-4 -7 -1 63.99 3.4
-4 7 1 59.79 3.7
-4 -7 -1 54.19 4.3
4 -7 1 57.49 4.2
-4 7 1 60.39 3.7
4 -7 1 55.29 3.8
-4 -7 1 59.99 4.2
4 -7 -1 58.29 4
4 7 1 58.79 3.5
-4 7 -1 60.99 3.6
4 7 1 61.29 3.2
-4 7 -1 55.79 3.6
-4 -7 1 61.79 4
4 -7 -1 60.49 4.1
4 7 1 64.89 3.7
-5 -7 -1 14 2.5
-5 7 1 14.7 2.5
5 7 -1 11.5 2.1
5 7 -1 13.9 2.2
-5 -7 -1 8.5 2.4
-5 -7 -1 14 2.2
5 -7 1 11.4 2.8
5 -7 1 12.5 2.5
-5 7 1 10.9 2.1
-5 7 -1 14 2.1
5 -7 -1 14.8 2.8
5 7 1 12.8 1.8
-5 -7 1 12 2.4
-5 -7 1 12.3 2.8
5 -7 -1 11 2.5
5 7 1 11.1 2.2
5 7 1 10.8 2.1
-5 7 -1 13.3 2.2
6 7 -1 1.6 1.3
-6 -7 -1 1.4 1.7
6 -7 1 1.3 2.1
-6 -7 -1 -1.4 1.6
-6 7 1 1.4 1.4
6 -7 1 0.4 1.6
6 7 -1 -0.5 0.9
-6 7 1 0.9 1.3
-6 7 -1 1.1 1.3
-6 7 -1 1.5 1.2
6 -7 -1 1.5 2.1
6 7 1 -0.7 1.1
-6 -7 1 -1.9 1.6
-6 -7 1 2 1.7
6 7 1 0.9 1.3
6 -7 -1 -0.9 1.4
7 -7 1 0.7 2.4
-7 -7 -1 3.8 2.2
7 7 -1 1.9 1.6
-7 7 1 6.4 2.2
-7 -7 -1 2.2 2.2
7 7 -1 1.2 1.7
-7 7 1 4.4 1.8
7 -7 1 -0.8 1.8
7 7 1 1.1 1.5
7 -7 -1 3.6 2.2
-7 7 -1 2.5 1.6
7 7 1 4.2 1.8
-7 7 -1 0.6 1.5
-7 -7 1 0.9 1.9
7 -7 -1 1.9 2
-7 -7 1 5.2 2.3
-8 -7 -1 9.9 3
8 7 -1 8 2.5
-8 7 1 6 2.5
-8 -7 -1 11.6 3.4
8 7 -1 10.5 2.6
8 -7 1 10.1 3.5
8 -7 1 12.8 3.5
-8 7 1 13.4 3.1
8 -7 -1 8.8 2.9
8 7 1 7.9 2.4
-8 -7 1 11.2 3.1
-8 7 -1 9.8 2.6
8 -7 -1 6.8 2.8
-8 -7 1 8.5 2.8
8 7 1 6.7 2.2
0 8 -1 0.8 0.8
0 -8 1 0.4 1.3
0 8 1 0.2 0.7
0 8 -1 0 0.6
0 -8 -1 0.2 0.8
0 -8 -1 0.3 1
0 -8 1 -0.6 1
0 -8 -1 0.3 1.4
0 8 1 0.4 0.8
0 8 -1 0.4 0.8
0 8 1 1.4 0.9
1 8 -1 11.2 1.6
-1 8 1 7.9 1.6
1 -8 1 9 1.5
1 8 -1 8.5 1.7
1 -8 1 8.3 2
-1 -8 -1 11.1 1.8
1 8 -1 8.4 1.2
-1 -8 -1 8.5 1.6
-1 8 1 9.8 1.6
-1 -8 -1 8.6 2
1 -8 1 11.9 1.9
-1 -8 1 11.6 1.8
-1 -8 1 8 2
1 -8 -1 10.6 2
1 8 1 8.1 1.6
1 -8 -1 8.2 1.9
-1 8 -1 9.5 1.4
-1 8 -1 7.8 1.5
1 8 1 8.6 1.6
-1 8 -1 9.7 1.7
-1 -8 1 10.9 1.6
2 -8 1 28.4 2.7
-2 -8 -1 28.1 2.5
-2 8 1 25.4 2
2 8 -1 25.1 2.3
-2 8 1 27.7 2.4
2 8 -1 26.9 2.3
2 -8 1 28.6 3.1
-2 -8 -1 25.1 3
-2 8 1 25.2 2.4
-2 8 -1 27 2.4
-2 -8 1 27 3.1
2 8 1 27.8 2.3
2 8 1 22.7 2.2
2 -8 -1 27.9 2.7
-2 -8 1 24.6 2
2 -8 -1 28.1 3
-2 -8 1 25.4 2.6
-2 8 -1 27 1.8
-2 8 -1 26.7 2.3
3 -8 1 -0.3 1.5
-3 8 1 -1.1 0.7
-3 -8 -1 0.6 1
-3 -8 -1 1.3 1.4
-3 8 1 0.8 0.8
3 8 -1 0.5 0.8
3 -8 1 1.1 1.3
-3 -8 -1 -0.8 1.4
-3 8 1 -0.6 0.9
3 8 -1 1.7 1.1
-3 8 -1 1.2 1.1
3 -8 -1 0 1.2
3 8 1 0.6 1
3 8 1 1.1 0.9
3 8 1 0.8 1
-3 -8 1 0.9 1.3
-3 -8 1 2.8 1.6
3 -8 -1 1 1.4
-3 8 -1 0.3 0.9
4 8 -1 19.3 2.2
4 8 -1 21.5 2.4
-4 8 1 25.3 2.8
-4 8 1 23 2.7
4 -8 1 21.8 3.4
-4 -8 -1 24.5 2.5
4 -8 1 15.9 2.8
-4 -8 -1 19.8 3.3
-4 -8 -1 23.4 3
-4 8 -1 25 2.7
-4 8 -1 24.6 2.6
4 8 1 23.7 2.3
-4 -8 1 20 2.9
4 -8 -1 19.2 2.8
4 8 1 22.6 2.6
4 8 1 19.8 2.5
4 -8 -1 18.7 3.1
-4 -8 1 21.3 3.3
5 8 -1 121.79 5.6
5 -8 1 115.79 6.5
-5 -8 -1 103.99 5.7
5 -8 1 104.19 5.9
-5 8 1 114.19 5.8
5 8 -1 111.29 5.1
-5 8 1 125.99 6
-5 -8 -1 120.69 6.8
5 8 1 123.49 5.7
5 -8 -1 113.39 6.1
-5 8 -1 116.29 5.6
-5 -8 1 116.79 6.1
5 -8 -1 122.69 6.3
-5 8 -1 113.19 5.6
5 8 1 113.49 5.5
-5 -8 1 116.29 6.6
5 8 1 114.79 4.9
-6 8 1 87.59 5.3
-6 -8 -1 81.79 5.5
6 -8 1 89.09 6.2
6 -8 1 82.99 5.6
6 8 -1 85.39 4.5
-6 -8 -1 83.09 6.1
6 8 -1 83.89 4.9
-6 8 1 77.89 5.2
6 -8 -1 90.79 5.9
6 -8 -1 86.59 5.7
-6 -8 1 71.09 5.6
6 8 1 72.29 4.8
-6 8 -1 86.59 5.2
-6 8 -1 81.49 5.2
-6 -8 1 79.59 5.5
6 -8 -1 74.29 5.3
6 8 1 87.39 5.2
7 -8 1 20.2 4.1
7 8 -1 25.5 3.3
-7 8 1 21.6 3.3
-7 -8 -1 21.7 4
7 8 -1 17.3 3.2
-7 8 1 18.8 3.4
-7 -8 -1 26.7 4
7 -8 1 26.1 4
-7 -8 1 14.4 3.4
-7 8 -1 18.3 3.2
-7 -8 1 17.3 3.4
7 -8 -1 23.5 3.9
-7 8 -1 16.9 3
7 8 1 16.7 3
7 8 1 22.6 3.3
7 -8 -1 12.4 3
0 9 -1 0.2 0.7
0 -9 1 1.8 1.3
0 -9 -1 -0.8 1.5
0 9 1 0.3 0.8
0 9 -1 0.9 0.8
0 -9 -1 0.1 1.1
0 -9 1 1.5 1.5
0 9 1 -0.5 0.9
0 9 -1 0.1 0.9
0 9 1 -0.3 0.9
-1 9 1 66.59 3.4
1 9 -1 73.99 3.5
-1 -9 -1 72.69 3.9
1 9 -1 68.09 3.9
1 -9 1 66.59 4.6
1 -9 1 67.89 3.9
-1 9 1 66.39 3.8
-1 -9 -1 69.79 3.5
-1 -9 -1 67.39 4.5
1 -9 -1 61.99 3.9
1 -9 -1 64.69 4.4
-1 -9 1 66.59 3.6
-1 9 -1 77.19 3.3
1 9 1 63.59 3.7
1 9 1 71.19 3.8
-1 -9 1 70.49 4.6
-1 9 -1 69.39 3.5
-1 -9 1 77.49 3.6
-1 9 -1 67.19 3.8
-2 9 1 131.79 4.7
2 -9 1 120.69 5.5
-2 9 1 129.69 5.2
-2 9 1 124.89 5.5
2 -9 1 127.29 6.3
2 9 -1 127.89 5
-2 -9 -1 123.09 5.1
-2 -9 -1 117.99 6.1
2 9 -1 127.79 5.4
-2 -9 1 106.19 5.9
2 -9 -1 120.99 5.5
-2 9 -1 126.49 5.1
-2 9 -1 126.19 5.4
-2 -9 1 131.49 4.7
2 9 1 133.69 5.3
2 9 1 130.09 5.3
-2 -9 1 139.19 5.5
2 -9 -1 122.69 6
-3 -9 -1 66.59 4.9
3 9 -1 68.59 4
-3 9 1 71.39 4.3
3 -9 1 66.59 4.4
-3 -9 -1 76.59 3.9
-3 9 1 70.89 4.1
3 9 -1 78.89 4.2
3 -9 1 68.29 5
-3 -9 -1 64.79 4
3 9 1 82.99 4.1
-3 -9 1 70.09 5
-3 9 -1 70.79 4
3 -9 -1 71.09 4.5
3 9 1 74.49 4.1
3 -9 -1 66.39 4.8
-3 9 -1 68.39 4.1
3 9 1 73.49 4
-3 -9 1 66.49 4.3
-4 9 1 50.09 3.9
-4 -9 -1 61.39 5
4 9 -1 50.59 3.7
4 -9 1 46.4 4.7
4 9 -1 52.19 3.5
-4 -9 -1 51.49 4.1
-4 9 1 51.39 3.9
4 -9 1 49.1 4.2
-4 9 -1 50.29 3.8
4 -9 -1 46.9 4.1
4 9 1 45.9 3.3
4 9 1 49.6 3.7
4 9 1 47.7 3.5
4 -9 -1 50.89 4.5
-4 -9 1 51.99 4.7
-4 -9 1 56.89 4.3
-4 9 -1 54.39 3.8
5 -9 1 22.1 3.4
-5 9 1 18.1 2.8
5 9 -1 18.6 2.4
-5 -9 -1 18.2 3.1
5 -9 1 19.9 3.6
-5 -9 -1 12.9 3
5 9 -1 18.9 2.8
-5 9 1 15 2.8
-5 -9 1 21.7 3.5
5 -9 -1 19.6 3.4
-5 -9 1 16.9 3.3
5 -9 -1 13.7 3
-5 9 -1 15.8 2.7
-5 9 -1 17.8 2.8
5 9 1 18.5 2.7
5 9 1 17.7 2.8
5 9 1 16.7 2.4
6 9 -1 4.3 2
-6 -9 -1 6.5 2.6
6 -9 1 4.4 2.3
-6 9 1 2.4 1.6
6 9 -1 5.7 2
6 -9 1 6.2 3.1
6 9 -1 4.3 1.4
-6 -9 -1 2.6 2.3
-6 9 1 3.5 1.9
-6 9 -1 2.6 1.8
6 -9 -1 6.5 2.5
6 9 1 3.2 1.8
-6 -9 1 4.7 2.6
-6 -9 1 2.5 2.2
6 -9 -1 3.9 2.6
-6 9 -1 2.6 1.6
6 9 1 4.4 1.7
6 -9 -1 8.6 2.6
-7 -9 -1 1.7 2.6
7 9 -1 1 1.8
-7 9 1 2.2 1.8
-7 -9 -1 1.3 2.3
7 9 -1 4.5 2.2
7 -9 1 7.7 3.6
-7 9 1 2.2 1.7
7 -9 1 4.2 2.7
-7 9 -1 3.5 1.9
7 -9 -1 0.1 1.9
-7 -9 1 -1.5 2.1
7 9 1 4.1 2.1
-7 -9 1 4.1 2.4
-7 9 -1 0 1.7
7 9 1 2.6 2
7 -9 -1 3.3 2.4
0 10 -1 0.8 1.1
0 10 -1 -0.7 0.8
0 10 1 -0.1 1
0 -10 -1 0 1.7
0 -10 1 0 1.8
0 10 1 -0.3 1
0 -10 -1 1.9 1.4
-1 -10 -1 60.09 4.8
-1 10 1 54.09 3.8
-1 -10 -1 54.69 3.7
1 -10 1 52.89 4.6
-1 10 1 54.29 3.3
1 10 -1 52.49 3.3
1 -10 1 54.99 3.7
1 10 -1 54.69 3.8
1 10 1 65.79 3.8
-1 -10 1 56.79 3.6
-1 10 -1 56.09 3.8
1 -10 -1 51.29 4.5
-1 -10 1 65.59 3.6
-1 10 -1 57.69 3.3
1 -10 -1 51.99 3.8
-1 -10 1 56.89 4.6
1 10 1 51.49 3.6
-2 -10 -1 66.79 3.9
2 10 -1 62.89 4.1
-2 10 1 62.49 3.8
-2 -10 -1 73.29 5.2
2 -10 1 63.89 4.2
-2 10 1 67.29 4.2
2 10 -1 65.09 3.8
2 -10 1 60.09 4.9
-2 -10 1 71.69 4.2
-2 10 -1 63.69 4.1
2 -10 -1 70.99 5
2 10 1 67.59 4
-2 -10 1 62.29 4.9
-2 10 -1 65.09 3.8
2 -10 -1 63.19 4.3
2 10 1 67.49 4
-3 -10 -1 67.19 4.3
3 10 -1 55.39 3.9
-3 -10 -1 53.19 4.9
-3 10 1 52.59 4
-3 10 1 59.29 4
3 -10 1 69.29 5.4
3 -10 1 55.99 4.3
3 10 -1 63.89 4
3 -10 -1 62.59 4.9
3 -10 -1 57.99 4.4
-3 10 -1 55.49 3.8
3 10 1 49.99 3.8
-3 -10 1 55.19 4.2
3 10 1 57.89 3.7
-3 10 -1 59.39 4
-3 -10 1 52.79 4.9
3 10 1 61.39 3.9
-4 10 1 0.2 1.3
-4 10 1 4.7 1.9
4 10 -1 2.8 1.6
4 -10 1 3.4 2.7
-4 -10 -1 3.2 2.2
-4 -10 -1 3.6 1.8
4 10 -1 4.4 1.7
4 -10 1 5.9 2.2
-4 -10 1 6.5 2.3
4 10 1 3.3 1.4
4 10 1 3.3 1.5
4 10 1 4.9 1.7
4 -10 -1 5.3 2.5
-4 10 -1 3 1.6
-4 10 -1 0.9 1.4
-4 -10 1 3.9 2.3
4 -10 -1 3.3 2.1
5 10 -1 16.1 2.6
-5 10 1 17 2.8
5 10 -1 14.3 2.9
-5 -10 -1 20.7 3.4
-5 -10 -1 10.5 3.2
-5 10 1 15.4 2.9
5 -10 1 14.5 3.7
5 -10 1 21.1 3.8
-5 10 -1 16.8 3
5 -10 -1 18.6 3.6
5 10 1 16.9 2.9
-5 -10 1 7.8 2.9
5 -10 -1 14.3 3.2
-5 10 -1 7.8 2.2
5 10 1 14.2 2.7
-5 -10 1 15.5 3.2
6 10 -1 5.9 1.9
-6 10 1 4.4 2
-6 10 1 5.2 2
6 10 -1 8.1 2.4
-6 -10 -1 9.2 2.8
6 10 -1 3.7 2
6 -10 1 6.4 3.2
-6 -10 -1 4.3 2.8
6 -10 1 9 3
-6 10 -1 7.3 2.2
6 -10 -1 3.3 2.4
-6 -10 1 4.3 2.3
6 10 1 5.5 2
6 -10 -1 4.6 2.3
-6 -10 1 8.9 3.2
6 -10 -1 10.1 4.1
-6 10 -1 5.6 2.2
6 10 1 8.4 2.6
0 11 1 -1 1.3
0 11 -1 0.8 1.2
0 11 -1 -2.1 1
0 -11 1 -0.5 2
0 11 1 0.1 1.1
0 -11 -1 1.2 1.5
0 -11 -1 -0.3 1.9
1 -11 1 7 2.1
-1 -11 -1 8.1 2.7
-1 -11 -1 9.7 2.2
1 11 -1 8.9 2
-1 11 1 8.7 2
1 -11 1 3.7 2.5
1 11 -1 9.1 1.9
-1 11 1 7 1.9
1 11 1 3.1 1.7
1 11 1 5.9 1.7
1 -11 -1 10.4 2.8
-1 11 -1 3.8 1.7
-1 11 -1 8.7 1.9
-1 -11 1 8.3 2.7
1 -11 -1 7.3 2.1
-2 -11 -1 6.2 2.5
2 -11 1 3.5 2
2 11 -1 3.4 1.4
2 -11 1 9.1 3
-2 11 1 2.3 1.5
2 11 -1 5.5 1.9
-2 11 1 0.1 1.3
2 11 1 3.5 1.6
2 11 1 2.8 1.8
2 -11 -1 1.7 2.2
-2 -11 1 5.1 2
-2 11 -1 3.8 1.8
-2 11 -1 6.6 1.7
2 11 1 0.3 1.3
2 -11 -1 2.8 2
-2 -11 1 1.7 2.3
3 -11 1 11.3 2.8
3 -11 1 12.2 3.2
-3 11 1 10 2.2
-3 11 1 9.2 2.2
3 11 -1 14 2.8
-3 -11 -1 16.3 3.5
-3 -11 -1 7.5 2.4
3 11 -1 10.6 2.2
3 11 1 10 2.3
-3 -11 1 20.5 3.3
3 -11 -1 12 2.8
-3 11 -1 10.5 2.2
-3 -11 1 10.9 3
3 -11 -1 15.4 3.3
3 11 1 8.7 1.9
-3 11 -1 14.2 2.6
3 11 1 13.3 2.4
4 -11 1 37.1 4.3
-4 -11 -1 34.2 4
-4 -11 -1 42.2 5.1
4 11 -1 46.5 4
4 11 -1 39 3.7
-4 11 1 34.5 3.7
-4 11 1 41.2 4
4 -11 1 49.5 5.4
-4 -11 1 45.6 5.1
4 -11 -1 42.2 4.5
4 -11 -1 39.2 4.9
4 11 1 36.8 3.6
-4 11 -1 38.9 3.8
4 11 1 43.2 3.7
4 11 1 33.9 3.5
-4 11 -1 39 3.8
-4 -11 1 42.3 4.4
5 11 -1 8.3 2.2
5 -11 1 10.6 3.8
5 -11 1 4 2.6
5 11 -1 4.9 2.2
-5 11 1 9.2 2.4
-5 11 1 9.6 2.6
-5 -11 -1 7.9 2.7
-5 -11 -1 9.7 3.3
-5 -11 1 10.8 3.1
5 11 1 10.6 2.6
5 11 1 7.9 2.2
-5 11 -1 8.7 2.5
5 -11 -1 8.5 3.1
5 -11 -1 9 2.8
5 -11 -1 6.3 2.8
-5 -11 1 5.1 2.8
-5 11 -1 5 2
-6 11 1 22.7 3.8
-6 -11 -1 17.7 4.1
-6 -11 -1 15.3 3.6
-6 11 1 19.2 3.6
6 -11 1 28.1 4.5
6 11 -1 20.6 3.5
6 11 -1 27.3 3.8
6 11 -1 26.9 3.9
6 -11 1 25.4 4.6
-6 -11 1 18.6 4.2
-6 11 -1 18.2 3.3
6 11 1 27.7 3.7
6 11 1 16.4 3.2
-6 -11 1 22.6 3.9
6 -11 -1 23 4.1
-6 11 -1 23.1 3.6
6 -11 -1 13.6 3.4
0 -12 1 1.9 2.4
0 -12 -1 1.7 2.4
0 12 1 -1.4 1.1
0 -12 -1 1 1.6
0 12 -1 -0.9 1.1
0 12 1 0.8 1.3
1 -12 1 18.3 3.6
-1 -12 -1 25.1 4.2
-1 12 1 27.2 3.3
-1 -12 -1 31.5 3.5
1 12 -1 29.9 3
1 -12 1 31.7 3.5
1 12 -1 32.4 3.4
-1 12 -1 30.8 3.4
1 -12 -1 25.8 3.6
1 -12 -1 30.1 4.6
1 12 1 23.7 3.1
1 12 1 25.7 3.2
-1 -12 1 24.7 4.2
2 12 -1 18.2 3
-2 -12 -1 13.9 3.5
-2 12 1 21.7 3.1
2 12 -1 12.7 2.4
2 -12 1 17.9 3.8
2 -12 1 19.3 3.3
2 -12 -1 18.8 3.9
-2 -12 1 18.1 3.6
-2 12 -1 16.6 2.6
2 12 1 15.6 2.9
-2 12 -1 15.2 2.8
2 -12 -1 17.4 3.2
2 12 1 15.2 2.6
-3 -12 -1 10.1 3.3
3 12 -1 9.2 2.2
-3 12 1 14.9 2.7
-3 12 1 14.8 3
3 12 -1 14.3 2.9
3 -12 1 9.7 3.3
3 -12 1 11.1 2.9
3 12 1 7.1 2.2
-3 -12 1 12.7 3.8
3 12 1 11 2.6
3 -12 -1 12.7 3.5
-3 12 -1 13.2 2.7
-3 12 -1 14.3 2.7
3 -12 -1 12 3
4 12 -1 3.6 2
4 12 -1 4 1.8
4 -12 1 1.3 3.1
-4 -12 -1 7.4 3.3
-4 -12 -1 2.4 2.9
-4 12 1 5.1 2.1
-4 12 1 6.1 2.3
4 -12 1 7.3 3
-4 -12 1 7.3 3.2
4 12 1 2.9 1.9
-4 12 -1 3.2 1.9
4 -12 -1 7.4 3.1
4 -12 -1 0.7 2.5
-4 -12 1 7.9 2.9
4 -12 -1 2.9 2.3
4 12 1 3.1 1.8
-4 12 -1 4 1.9
4 12 1 4.9 2.1
-5 12 1 55.49 4.9
-5 -12 -1 45.7 5.9
5 -12 1 54.49 6.2
5 12 -1 45.2 4.5
5 12 -1 51.19 4.4
-5 -12 -1 50.09 5.1
5 12 -1 38.5 4.1
5 -12 1 41.3 5.1
-5 12 1 46.1 4.5
-5 12 -1 40.6 4.4
-5 12 -1 40.6 4.4
5 12 1 45.8 4.5
-5 -12 1 48.1 5.7
5 -12 -1 47.3 5
5 -12 -1 45.1 5.9
5 12 1 46.6 4.2
-5 -12 1 55.39 5.5
5 -12 -1 40.8 5
0 -13 -1 -4.7 2.3
0 13 1 -1 1.5
0 -13 -1 -1.2 1.8
0 -13 1 0.2 2.6
0 13 -1 1.7 1.6
-1 13 1 53.19 4.5
1 -13 1 55.49 5.9
1 13 -1 57.59 4.6
1 -13 1 57.49 6.3
-1 -13 -1 64.39 6.1
1 -13 -1 59.09 5.8
1 -13 -1 47.5 4.5
-1 -13 1 51.19 5.6
1 13 1 57.19 4.5
1 13 1 55.29 4.4
-1 13 -1 67.09 4.9
2 -13 1 2.6 3.2
2 13 -1 14.3 2.9
-2 13 1 12.3 2.8
2 13 -1 19.9 3.1
2 -13 1 11.8 3
-2 -13 -1 6.7 3.4
2 13 1 11.8 2.7
2 -13 -1 16.6 4.1
2 13 1 15.3 2.8
-2 13 -1 14.3 3
2 -13 -1 9.3 2.7
-2 -13 1 17.9 4
3 -13 1 1.7 3.3
3 13 -1 6.9 2.6
-3 -13 -1 7.2 3.3
3 -13 1 5.5 2.8
-3 13 1 6.6 2.6
-3 13 1 6.8 2.5
3 13 -1 3.8 2
3 -13 -1 7.6 3.6
-3 13 -1 4.8 1.9
3 13 1 8.3 2.4
3 -13 -1 9.6 3.1
3 -13 -1 4.9 2.5
-3 13 -1 7.2 2.3
-3 -13 1 4.3 3
3 13 1 6.5 2.3
4 -13 1 16.4 4.3
4 13 -1 14.9 2.8
4 -13 1 17.9 3.7
-4 -13 -1 16 4.2
-4 13 1 17.9 3.3
4 13 -1 8.7 2.6
-4 13 1 14 3.1
4 13 1 17.5 3.2
-4 -13 1 19.2 4.2
-4 13 -1 17.3 3.3
4 -13 -1 18.2 4.1
4 -13 -1 14.9 3.7
-4 13 -1 10.2 2.8
4 13 1 22.7 3.7
0 14 1 0.2 1.8
0 -14 1 4.2 3.3
0 14 -1 -0.4 1.6
0 -14 -1 -1 2.8
-1 -14 -1 42.2 5.9
-1 14 1 33.8 4
1 -14 1 26.4 4.7
1 14 -1 27.4 3.8
1 -14 -1 28.7 4
-1 -14 1 34.1 5.5
-1 14 -1 24.2 3.6
1 -14 -1 19.1 4.1
1 14 1 27.6 3.7
-2 14 1 8.9 2.5
2 -14 1 9.5 3.9
2 -14 1 7.9 2.8
2 14 -1 8.2 2.6
-2 -14 -1 13.2 4.1
-2 14 -1 7.2 2.6
2 14 1 5.9 2.4
2 -14 -1 9.1 3.8
2 14 1 9.1 2.6
-2 -14 1 7.2 3.4
2 -14 -1 3.3 2.6
0 0 2 437.76 7.9
0 0 2 430.86 8.3
0 0 -2 423.16 8.1
0 0 2 429.96 8.2
0 0 -2 430.46 8
0 0 2 439.26 8.1
-1 0 -2 -1.3 0.6
-1 0 2 -0.9 0.9
-1 0 2 -0.9 1.2
1 0 2 -0.9 0.9
1 0 -2 -2.5 0.6
-1 0 -2 -2.2 0.7
1 0 -2 -2.8 0.6
-1 0 2 -3 0.7
1 0 -2 -1.1 0.6
1 0 2 -2.4 0.7
-1 0 -2 -1.9 0.7
1 0 2 -1 0.5
-2 0 2 802.02 15.1
2 0 -2 797.62 14.6
2 0 2 774.32 14.7
2 0 2 804.72 15.3
-2 0 -2 816.12 15.1
2 0 -2 792.42 14.2
-2 0 2 785.82 15.2
2 0 2 778.92 14
2 0 -2 789.22 14.8
-2 0 2 801.72 14
-2 0 -2 782.92 14.8
-3 0 2 0.2 0.7
3 0 2 0.1 0.4
3 0 2 1 0.8
3 0 -2 0.4 0.7
3 0 -2 1 0.6
-3 0 2 -0.3 0.6
-3 0 -2 0 0.6
3 0 -2 0.1 0.5
-3 0 2 0.3 0.6
3 0 2 0.5 1
3 0 2 1.4 0.5
-3 0 -2 1.7 0.9
-3 0 2 0.7 0.8
-3 0 -2 -0.4 0.4
-4 0 2 175.28 5.7
-4 0 2 162.98 5
-4 0 -2 172.98 4.6
-4 0 2 170.28 6.7
-4 0 2 175.38 5.1
-4 0 2 172.28 5.8
4 0 2 167.88 5.9
-4 0 -2 168.48 5.3
4 0 -2 169.78 5
-4 0 -2 178.98 5.8
4 0 2 171.88 5.3
4 0 -2 157.88 4.8
4 0 2 161.98 4.1
4 0 -2 166.18 5.2
4 0 2 165.28 4.5
-5 0 -2 0.8 0.8
-5 0 2 -0.4 0.9
-5 0 -2 -0.2 0.8
5 0 2 0.4 0.6
-5 0 2 1 0.8
5 0 -2 0.3 0.6
5 0 2 0.9 1.2
5 0 -2 0.4 0.7
-5 0 2 -1 0.7
5 0 2 0.8 0.9
5 0 -2 -0.2 0.7
5 0 -2 -0.2 0.6
-5 0 -2 -0.3 0.6
5 0 2 1.3 0.7
5 0 -2 -0.6 0.8
-6 0 2 246.18 8.5
-6 0 2 249.78 7.6
6 0 -2 253.37 7.7
6 0 -2 259.27 8.2
-6 0 -2 271.37 8.3
6 0 2 256.47 7
6 0 -2 259.07 7.5
6 0 2 261.47 9
6 0 -2 270.47 7.7
6 0 2 258.07 7.9
6 0 -2 261.07 7.5
6 0 -2 255.57 7.5
-6 0 -2 254.07 8.5
-6 0 2 258.67 8.2
7 0 -2 2.8 1.3
7 0 -2 1.3 1.3
7 0 -2 0.5 1.1
7 0 2 -2.7 0.9
-7 0 2 -0.9 1
-7 0 -2 0.1 1
7 0 -2 1.3 1
7 0 -2 0.6 1
-7 0 2 -0.5 1
7 0 -2 1.3 1.1
-7 0 -2 1 1.3
7 0 2 -3.5 1.2
-8 0 2 127.09 6
8 0 -2 136.09 5.9
8 0 2 126.89 7.2
8 0 -2 126.59 5.6
8 0 2 127.29 6.1
8 0 -2 122.79 5.7
-8 0 -2 118.09 6
-8 0 2 118.39 6
-8 0 -2 116.99 6.3
-8 0 2 121.99 5.7
-9 0 2 1.1 2.1
9 0 2 -0.9 1.7
9 0 2 -1.2 1.9
-9 0 -2 0.8 1.3
9 0 2 -1.7 1.5
-9 0 -2 1.2 1.8
0 1 2 119.39 2.8
0 -1 2 113.29 2.8
0 -1 -2 119.59 2.7
0 1 -2 116.89 2.6
0 1 -2 120.59 2.9
0 -1 -2 119.49 3
0 -1 2 117.39 3.1
0 -1 -2 121.69 3
0 1 2 116.19 3
-1 1 2 397.56 7.4
1 -1 2 384.66 8
-1 1 2 391.26 8
1 -1 2 387.86 6.9
-1 -1 -2 380.26 7.8
1 1 -2 395.46 7.5
-1 -1 -2 389.36 7.9
1 -1 2 386.36 7.8
-1 -1 -2 392.56 7.2
1 1 -2 394.76 7.7
-1 1 2 388.76 7.9
-1 -1 2 408.16 8.1
1 -1 -2 392.06 7.7
-1 -1 2 398.76 7.4
1 1 2 383.36 7.7
1 -1 -2 399.86 7.7
-1 1 -2 402.26 7.1
1 1 2 392.86 7.6
-1 -1 2 387.16 8
-1 1 -2 399.76 7.7
-1 1 -2 398.06 7.6
-2 1 2 105.59 3.6
-2 -1 -2 107.09 3.3
2 -1 2 104.69 2.4
-2 1 2 104.29 2.8
2 1 -2 95.79 3.1
2 -1 2 108.79 3.7
-2 -1 -2 99.59 3.5
2 1 -2 102.49 2.5
2 -1 2 101.29 3.2
-2 1 2 104.59 3.4
2 1 -2 99.89 2.9
-2 -1 -2 102.79 2.6
-2 1 -2 103.69 2.5
2 1 2 102.69 3.3
-2 -1 2 103.19 3
2 -1 -2 115.89 3.2
-2 -1 2 104.09 3.6
-2 1 -2 106.19 3.1
2 1 2 106.49 3
2 -1 -2 106.49 3.3
-2 1 -2 98.29 3.3
2 -1 -2 105.29 2.8
-2 -1 2 104.19 3.4
-3 -1 -2 151.48 4.6
-3 1 2 152.58 4.6
-3 1 2 146.69 4.7
-3 1 2 151.48 4.9
3 -1 2 145.19 3.5
3 1 -2 145.09 3.7
-3 1 2 150.08 4
-3 -1 -2 149.88 3.8
3 1 -2 145.29 4
-3 1 2 146.09 4
3 -1 2 155.48 5.2
3 1 -2 144.09 4.4
3 -1 2 147.49 4.4
-3 -1 -2 149.69 4.9
-3 -1 2 151.38 3.8
-3 1 -2 149.09 4.3
-3 -1 2 155.98 5
3 -1 -2 157.58 4.5
3 1 2 150.48 3.3
-3 -1 2 143.59 4.3
3 -1 -2 141.19 4.1
3 -1 -2 142.99 4.2
-3 1 -2 148.79 4.7
-3 -1 2 141.39 4.4
-3 1 -2 145.19 4.5
3 1 2 152.68 4.1
-3 1 -2 149.59 3.8
3 1 2 153.08 4.5
-4 -1 -2 479.05 9.8
-4 1 2 485.15 10.3
4 -1 2 485.85 10.8
4 1 -2 482.05 10
4 -1 2 492.15 11.9
4 1 -2 485.05 10.3
-4 -1 -2 492.95 11
-4 1 2 487.15 11.1
-4 1 2 506.35 11.1
4 1 -2 488.65 10.7
-4 1 2 501.35 11.6
4 -1 2 485.25 9.6
4 1 -2 471.35 10.7
-4 -1 -2 500.25 11.7
-4 -1 2 475.35 11.4
-4 -1 2 485.15 10.8
4 1 2 475.65 10.9
4 1 2 477.55 9.3
-4 1 -2 478.55 11.1
-4 1 -2 484.95 10.6
4 -1 -2 479.65 10.7
4 1 2 495.25 10.3
-4 1 -2 487.55 11.3
-4 1 -2 478.55 10
4 -1 -2 488.35 10.7
-4 -1 2 500.55 10.2
4 -1 -2 490.55 10.8
-5 -1 -2 103.79 4.4
5 -1 2 97.89 4.9
-5 1 2 107.29 4.8
5 1 -2 101.09 4.2
-5 1 2 106.79 4.6
-5 -1 -2 96.79 4.7
5 1 -2 114.59 4.3
-5 -1 -2 112.29 3.7
5 -1 2 117.49 3.7
5 1 -2 110.99 3.9
5 1 -2 112.59 4
5 -1 2 105.99 4.3
-5 1 2 102.49 4.3
5 -1 -2 104.79 4.2
5 1 2 107.09 4.4
5 1 2 106.19 3.3
-5 1 -2 105.89 4.1
5 -1 -2 101.79 4.4
-5 -1 2 105.99 4.7
5 1 2 105.59 3.9
-5 -1 2 104.19 4.4
-5 1 -2 101.89 4.5
5 -1 -2 105.49 4.4
-5 1 -2 105.99 4.7
-5 1 -2 110.89 3.9
-5 -1 2 105.99 3.9
5 -1 -2 106.09 4.3
5 -1 -2 105.39 3.9
-6 1 2 112.79 5.4
6 -1 2 108.39 4
6 -1 2 112.49 5.8
6 1 -2 113.69 4.7
-6 -1 -2 116.19 5
6 1 -2 114.89 4.4
-6 -1 -2 110.19 4.2
6 1 -2 111.69 4.7
-6 -1 -2 100.29 5.2
6 1 -2 107.59 4.4
-6 1 2 108.49 4.9
6 -1 2 102.09 4.7
-6 1 2 112.39 5
-6 -1 2 107.79 4.8
6 -1 -2 106.19 4.7
6 -1 -2 112.29 4.4
6 -1 -2 109.99 5.1
6 1 2 109.39 4.9
6 1 2 111.39 5.7
6 -1 -2 109.89 4.7
-6 -1 2 118.29 4.5
6 1 2 109.99 4.3
-6 -1 2 103.89 5.6
6 -1 -2 112.39 4.9
-6 1 -2 112.69 4.5
-6 1 -2 112.19 4.5
-6 1 -2 109.09 5
-6 1 -2 108.19 5.2
6 -1 -2 104.39 4.4
-6 -1 2 101.89 5
-7 -1 -2 51.79 4.2
-7 1 2 56.09 3.8
7 1 -2 59.69 3.8
-7 -1 -2 61.59 4
7 1 -2 54.09 3.5
7 -1 2 60.59 4.8
7 1 -2 64.19 4.4
7 -1 2 54.29 3.8
-7 1 2 60.79 4
-7 1 2 58.19 4.3
7 1 -2 56.19 3.6
7 1 -2 58.89 3.8
-7 -1 2 63.19 4
-7 -1 2 58.79 3.9
7 -1 -2 56.29 4.1
7 -1 -2 59.69 3.8
7 -1 -2 66.29 4
7 1 2 62.49 4.2
7 -1 -2 55.99 3.4
-7 -1 2 57.49 4
7 -1 -2 61.39 3.6
-7 1 -2 56.59 4.1
-7 1 -2 61.49 3.7
-7 1 -2 58.69 4
-7 -1 2 61.19 3.6
7 1 2 54.79 3.3
7 -1 -2 56.29 3.7
7 1 2 60.09 4.8
-8 1 2 10 2.1
-8 1 2 10.9 2.5
8 1 -2 13.8 2.5
8 -1 2 12.8 2.6
-8 -1 -2 13.2 2.5
8 -1 2 14.5 3.2
8 1 -2 12.6 2.2
-8 -1 -2 8.5 2.3
8 1 -2 14.8 2.3
8 -1 2 12.6 2.6
-8 1 2 12.5 2.6
-8 1 -2 14.5 2.4
8 -1 -2 16.2 2.3
-8 -1 2 14.7 2.6
8 1 2 20.2 3.2
8 1 2 9.5 2.8
8 -1 -2 12.5 2.4
8 -1 -2 10.9 2.2
-8 -1 2 12.8 2.5
-8 1 -2 15.9 2.5
8 -1 -2 14.6 3.3
9 1 -2 10.6 2.3
9 1 -2 11.7 2.5
-9 -1 -2 11.9 2.5
-9 -1 -2 9.1 2.5
9 -1 2 6.9 3.1
9 -1 2 10.2 3.2
9 -1 2 10.7 2.8
9 1 2 5.3 2.8
-9 -1 2 8.6 2.4
9 1 2 12.2 2.8
-9 1 -2 9.1 2.4
0 -2 2 2033.8 33.5
0 2 2 1968.5 33.9
0 2 2 1954.8 33.5
0 2 -2 1982 33.2
0 -2 -2 1981.8 33.6
0 -2 2 2002.5 34
0 2 2 1999.9 33.3
0 2 -2 1950.5 33.6
0 -2 -2 2066.89 34
0 2 -2 1985.8 33.6
0 -2 2 2028.7 34
-1 -2 -2 2503.15 40.9
-1 2 2 2472.05 42
-1 2 2 2484.95 41.9
1 2 -2 2421.56 41.3
-1 2 2 2492.55 40.8
-1 -2 -2 2492.15 42
1 2 -2 2505.45 41.8
-1 -2 -2 2534.55 42.2
1 -2 2 2415.96 41.8
1 -2 2 2488.85 42.3
-1 -2 2 2461.95 42.2
1 -2 -2 2475.75 42
-1 -2 2 2470.85 42.1
1 2 2 2442.56 41.8
-1 2 -2 2485.65 41.8
-1 2 -2 2495.35 41.8
1 2 2 2505.85 41
1 -2 -2 2534.45 41.2
1 2 2 2528.65 41.7
1 -2 -2 2427.16 41.8
-2 2 2 469.25 9.6
2 2 -2 458.75 8.9
-2 -2 -2 475.55 10.2
2 -2 2 456.35 9.4
2 2 -2 448.26 9.5
2 2 -2 463.95 9.5
-2 2 2 486.85 9.9
2 -2 2 464.55 10.2
-2 2 2 474.85 10
-2 2 2 461.75 8.5
-2 -2 -2 473.35 8.4
-2 -2 -2 476.25 9.7
2 -2 -2 464.65 9
-2 2 -2 462.75 8.9
2 2 2 469.25 8.4
-2 -2 2 466.65 10.1
2 -2 -2 476.55 9.7
-2 2 -2 464.15 9.8
-2 -2 2 467.55 9.9
-2 2 -2 481.85 9.6
2 2 2 464.25 9.5
2 -2 -2 467.05 9.7
2 2 2 480.35 9.6
-3 2 2 128.99 4.5
3 -2 2 125.89 4
3 2 -2 122.99 4
3 -2 2 125.09 2.9
-3 2 2 124.39 3.3
3 2 -2 124.39 4
-3 -2 -2 129.69 4.7
-3 2 2 125.29 4.3
3 2 -2 120.99 3.4
3 2 -2 125.49 3.2
-3 2 2 130.39 4.2
-3 -2 -2 127.39 3.1
-3 -2 -2 129.29 4.2
3 -2 2 124.49 4.7
-3 2 -2 122.39 4
3 -2 -2 123.29 4.1
-3 2 -2 129.49 3.6
-3 -2 2 126.19 4.6
3 2 2 123.79 3
3 -2 -2 126.89 4.2
-3 -2 2 127.09 4.3
3 2 2 134.29 4
3 -2 -2 129.79 3.9
3 2 2 129.69 4.2
-3 2 -2 122.09 4.3
-3 -2 2 126.79 3.2
-4 -2 -2 553.04 13
4 2 -2 555.94 11.1
-4 -2 -2 542.55 12
4 -2 2 538.95 13
-4 2 2 560.44 12.4
-4 2 2 555.64 11
4 -2 2 543.75 10.4
-4 2 2 555.84 12.2
4 2 -2 550.24 11.9
4 2 -2 558.74 10.9
-4 2 2 556.64 12.7
4 -2 2 547.65 11.8
4 2 -2 550.64 12
-4 -2 -2 554.94 10.6
-4 -2 2 542.05 10.9
-4 2 -2 555.94 11.3
-4 -2 2 563.94 12.8
4 -2 -2 547.45 11.8
4 2 2 539.95 11.6
4 2 2 561.64 12.2
-4 2 -2 542.55 12
-4 2 -2 536.85 12.4
4 -2 -2 562.14 12.2
4 -2 -2 552.34 12.2
4 2 2 545.45 10.5
-4 -2 2 576.84 12.4
-5 2 2 102.89 4.3
-5 2 2 87.19 4.1
5 -2 2 93.89 3.1
5 -2 2 93.49 4.8
5 2 -2 94.29 4
-5 2 2 87.89 4.5
5 2 -2 90.59 3.4
-5 2 2 97.79 3.6
-5 -2 -2 92.69 4.7
5 2 -2 95.29 3.5
5 2 -2 98.29 4.1
-5 -2 -2 96.29 3.3
5 -2 2 97.69 4.1
-5 -2 -2 97.79 4.2
5 2 2 93.29 3.8
5 2 2 95.29 3.1
5 -2 -2 87.69 3.4
-5 -2 2 88.99 3.4
-5 -2 2 87.39 4.1
5 -2 -2 93.99 4.1
5 2 2 96.09 4.2
-5 -2 2 93.79 4.5
-5 -2 2 94.79 4.3
-5 2 -2 96.19 3.8
-5 2 -2 92.89 4.3
-5 2 -2 94.29 4
5 -2 -2 90.59 4.1
5 -2 -2 91.89 4.1
6 -2 2 11.7 2.5
-6 -2 -2 12.9 2
-6 2 2 10.9 2.2
-6 2 2 13.9 1.8
-6 2 2 11 2
6 2 -2 13.9 1.9
-6 -2 -2 12.5 2.4
6 2 -2 13.8 1.6
6 -2 2 11.3 2
6 2 -2 12.4 1.8
-6 2 2 9.1 1.9
6 2 2 9.5 1.6
-6 -2 2 12.6 1.7
-6 2 -2 13.2 2
6 -2 -2 12.5 2
-6 2 -2 13.4 2
6 2 2 15.7 2.4
-6 2 -2 12.2 1.8
6 -2 -2 10.3 1.6
6 -2 -2 11.6 2.1
-6 -2 2 11.3 2.1
6 -2 -2 12.3 2.2
-6 -2 2 15.5 2.3
6 -2 -2 12.4 2
-6 -2 2 13.5 2.3
7 2 -2 15.1 2.6
-7 2 2 15.3 2.7
7 -2 2 13.5 2.9
-7 2 2 12.3 2.3
-7 -2 -2 17.1 2.4
-7 2 2 18.8 3.1
-7 2 2 15.7 2.1
-7 -2 -2 17.7 2.9
7 -2 2 15 2.4
7 -2 2 17.2 2.8
7 2 -2 12.8 2
7 2 -2 14.1 2.2
7 2 2 15.1 2.5
7 -2 -2 17.1 2.9
-7 2 -2 14.4 2.2
7 -2 -2 17.1 2.5
7 -2 -2 10.5 2.1
7 2 2 19 2.2
-7 -2 2 16.6 2.6
-7 -2 2 16.5 2.5
7 -2 -2 14.5 2
7 2 2 15.2 3.2
7 -2 -2 12 2.3
-7 2 -2 13.3 2.5
-8 -2 -2 10.2 2.2
8 2 -2 7.4 1.9
8 -2 2 7.6 2.2
8 2 -2 10.6 2.2
8 2 -2 11.2 2.2
-8 -2 -2 9.4 2.5
8 -2 2 8.5 2.7
8 -2 2 7.4 2.3
-8 2 2 14.3 2.9
-8 2 2 6.6 2
8 2 -2 4.4 2.1
-8 -2 2 6.1 2
-8 -2 2 13.4 2.6
8 2 2 13.9 2.8
-8 2 -2 8.4 2.2
8 2 2 5.8 1.6
-8 2 -2 10.9 2.2
8 -2 -2 4.5 1.8
8 -2 -2 8.9 2.3
8 -2 -2 7.7 2
8 2 2 11.2 3
-9 -2 -2 13 2.6
-9 2 2 15.9 5
9 -2 2 8 3.1
9 2 -2 12.4 2.5
-9 -2 -2 7.5 2.4
9 -2 2 11.3 2.9
9 2 -2 12.4 2.7
9 2 2 12.8 3.7
-9 -2 2 13.7 2.8
9 -2 -2 8 2.3
9 2 2 9.8 2.7
-9 2 -2 7.9 2.4
0 3 2 2678.93 45.6
0 3 -2 2680.63 45.5
0 -3 2 2735.33 44.9
0 -3 -2 2730.33 45.8
0 -3 2 2722.73 45.8
0 3 2 2700.73 45.4
0 -3 -2 2704.43 45.6
0 3 -2 2729.23 45.3
0 -3 -2 2584.54 46.9
0 3 -2 2743.43 45
0 3 -2 2689.13 44.7
0 3 2 2667.13 44.7
0 -3 2 2702.93 45
0 -3 2 2755.82 46.1
1 3 -2 9608.14 159.68
1 -3 2 9999 160.28
-1 3 2 9742.53 160.28
1 3 -2 9441.25 160.98
-1 3 2 9887.21 160.58
1 3 -2 9541.85 160.98
-1 -3 -2 9858.21 160.38
1 -3 2 9697.63 159.38
-1 -3 -2 9944.81 160.08
-1 -3 -2 9777.02 158.48
1 -3 2 9975.6 159.58
-1 3 2 9642.94 159.68
-1 3 -2 9751.12 162.28
1 3 2 9567.34 161.38
1 3 2 9678.73 161.48
-1 -3 2 9818.32 159.68
-1 3 -2 9619.24 161.18
1 -3 -2 9690.73 159.18
-1 -3 2 9832.52 160.08
-1 -3 2 9889.01 159.98
1 -3 -2 9858.91 160.88
-1 3 -2 9602.44 161.58
1 -3 -2 9687.03 159.48
2 -3 2 2277.57 38.9
-2 -3 -2 2252.87 38.6
-2 3 2 2244.78 38.8
2 3 -2 2232.48 38.4
-2 -3 -2 2230.88 39.4
-2 3 2 2257.47 39
-2 3 2 2256.77 38.7
2 -3 2 2246.38 39.3
-2 -3 -2 2214.58 38.5
2 -3 2 2146.79 38.1
2 3 -2 2206.88 37.4
2 3 -2 2234.68 38.5
2 -3 -2 2242.28 38.7
-2 3 -2 2190.38 38.7
-2 3 -2 2241.48 38.6
2 3 2 2224.98 37.5
2 -3 -2 2197.38 38
2 -3 -2 2248.38 38.9
2 3 2 2290.87 38.5
-2 -3 2 2222.98 39
-2 -3 2 2257.27 38.8
-2 -3 2 2236.78 39
2 3 2 2200.28 38.5
3 -3 2 870.61 18.1
3 -3 2 896.41 16.9
3 3 -2 893.81 17.2
-3 3 2 913.01 18
-3 -3 -2 894.21 17.5
3 3 -2 892.71 17.3
-3 3 2 900.01 15.7
3 -3 2 887.61 17.8
-3 -3 -2 879.41 18.3
-3 3 2 907.81 17.8
3 3 -2 897.71 16.1
-3 -3 -2 897.81 17.3
3 -3 -2 905.11 17.7
-3 3 -2 895.81 17.5
-3 3 -2 880.01 17.7
3 3 2 911.81 17.5
3 3 2 911.21 16
3 -3 -2 895.21 17
3 -3 -2 880.91 15.6
-3 -3 2 892.11 17.6
-3 3 -2 900.21 17
-3 -3 2 905.41 15.6
-3 -3 2 882.11 17.7
3 -3 -2 917.91 17.7
-3 -3 2 880.11 17.9
3 3 2 906.91 17.3
4 3 -2 153.38 5.1
-4 -3 -2 162.08 6
-4 -3 -2 160.28 5.2
4 -3 2 159.68 6
-4 3 2 156.58 5.6
-4 3 2 152.38 4
4 -3 2 157.98 4.9
4 -3 2 157.68 5.6
4 3 -2 160.48 5.1
-4 -3 -2 157.88 5.4
-4 -3 -2 155.08 3.7
4 -3 2 154.58 3.6
-4 3 2 152.98 5.4
4 -3 -2 157.68 5.4
-4 3 -2 158.08 4.7
4 3 2 156.48 4.1
-4 3 -2 150.28 5.4
-4 -3 2 159.28 5.5
4 -3 -2 162.58 5.5
-4 -3 2 158.58 5.5
4 -3 -2 147.69 4
4 -3 -2 152.48 5
4 3 2 152.78 5.2
-4 3 -2 166.38 5.4
4 3 2 154.48 5
-4 -3 2 158.38 5.7
-4 -3 2 157.28 4.1
5 -3 2 7.9 1.5
-5 3 2 9.3 1.8
5 -3 2 4.4 1.5
5 -3 2 6.5 1.9
-5 -3 -2 7.9 1.9
5 3 -2 8 1.1
5 3 -2 8.7 1.4
-5 3 2 7.4 1.2
-5 -3 -2 7.6 1.7
-5 -3 -2 4.6 1.3
-5 3 2 6.9 1.7
5 3 -2 8.5 1.6
5 -3 -2 7.3 1.2
5 3 2 7.3 1
5 -3 -2 5.5 1.5
5 3 2 9.1 1.5
-5 -3 2 7.8 1.1
5 -3 -2 8.1 1.7
-5 -3 2 9.6 1.8
5 3 2 6.4 1.5
-5 3 -2 7.8 1.6
-5 3 -2 7.1 1.4
5 -3 -2 6.9 1.6
-5 3 -2 6.9 1.6
-5 -3 2 8 1.7
-5 -3 2 8.9 1.7
6 3 -2 15.8 2
6 3 -2 17.5 2.2
-6 -3 -2 15.1 2.1
6 -3 2 12.5 2.3
6 -3 2 13.5 2.1
-6 3 2 16 2.3
-6 -3 -2 23.8 3
-6 3 2 19.2 2.6
6 -3 2 18.3 3
6 3 2 17.5 2
6 -3 -2 13 2.3
6 -3 -2 17.6 2.7
6 -3 -2 15.1 2.2
-6 -3 2 17 2.5
-6 3 -2 16.5 2.1
-6 3 -2 14.3 2.2
-6 3 -2 17.7 2.2
-6 -3 2 16.9 2.5
6 3 2 20.1 2.4
7 -3 2 192.28 7.8
7 -3 2 186.18 6.9
-7 -3 -2 186.48 6.9
7 3 -2 193.28 7.2
7 3 -2 172.08 6.8
-7 -3 -2 187.98 8
-7 3 2 194.88 7.5
7 -3 2 175.68 8.1
7 3 -2 186.48 6.7
-7 3 2 193.28 7.8
-7 -3 2 189.38 7.4
7 3 2 176.08 7.2
-7 -3 2 193.68 7.6
7 -3 -2 187.78 7.3
7 -3 -2 184.68 7.2
-7 3 -2 173.18 7.4
7 3 2 181.88 6.7
-7 3 -2 182.98 7
8 3 -2 47 4
-8 3 2 36.5 3.9
8 -3 2 49.3 4.6
-8 -3 -2 48.5 3.9
8 -3 2 50.79 5.3
8 3 -2 42 4.4
8 3 -2 46.5 3.7
-8 3 2 47 4.1
-8 -3 -2 49.8 4.6
8 3 2 45.9 3.6
-8 -3 2 49.7 4.2
8 -3 -2 47.8 4.1
8 -3 -2 42.9 3.8
-8 3 -2 46.5 4.2
-8 3 -2 41.9 3.7
8 -3 -2 46.5 4
-8 -3 2 45.4 4.1
8 3 2 52.49 4.3
9 3 -2 8.6 2.2
9 -3 2 11.2 2.8
-9 3 2 7.8 2.4
-9 3 2 6.1 2.5
9 -3 2 7.7 3.6
-9 -3 -2 11.7 3
9 3 -2 13.8 2.8
9 3 2 9.8 2.7
9 3 2 15 3.7
-9 -3 2 8.6 2.6
-9 3 -2 8.7 2.4
-9 3 -2 10.3 2.5
9 -3 -2 13.8 3.1
9 -3 -2 13.4 2.9
0 -4 2 339.47 7.7
0 4 -2 342.07 7.6
0 4 -2 344.77 6.8
0 -4 -2 354.16 7.9
0 -4 -2 344.77 7.1
0 4 2 338.67 7.6
0 -4 2 354.86 7.1
0 4 2 353.46 6.7
0 -4 2 348.87 8.2
0 -4 -2 340.77 7.8
0 4 -2 342.07 7.2
0 4 2 352.06 7.6
0 4 2 317.77 7.1
-1 4 2 451.25 9.6
1 4 -2 456.95 8.7
-1 4 2 450.65 9.5
1 -4 2 443.56 9.4
-1 -4 -2 458.55 8.2
-1 4 2 457.05 9.4
-1 -4 -2 460.75 9.7
-1 -4 -2 452.15 10
1 -4 2 443.76 9.3
1 -4 2 443.76 10.2
1 4 -2 442.66 9.1
-1 -4 -2 444.86 9.1
1 4 -2 439.66 9.5
-1 4 -2 458.35 9.5
-1 -4 2 455.75 10
1 4 2 441.46 9.1
-1 -4 2 456.45 8.3
1 -4 -2 451.55 9.5
-1 4 -2 444.26 9.4
-1 4 -2 440.16 9.4
-1 4 -2 461.35 8.1
1 -4 -2 457.45 9.5
1 4 2 454.65 9.6
-1 -4 2 446.86 9.9
1 -4 -2 464.65 9.9
-2 -4 -2 42.3 2.3
-2 4 2 36.2 2.2
2 -4 2 35.2 2.3
2 4 -2 37.5 2.1
2 -4 2 34.1 2
-2 -4 -2 37 2.7
2 -4 2 37.5 2.7
2 4 -2 36.8 1.5
-2 4 2 35.2 2.3
-2 -4 -2 37.9 2.2
2 4 -2 36.3 2.1
2 4 2 36.1 1.8
2 -4 -2 43.9 2.6
2 4 2 38.4 2.1
2 4 2 44 2.3
-2 4 -2 38.8 2
-2 -4 2 37.1 2.4
-2 -4 2 40.8 2.6
-2 4 -2 38.7 2.3
-2 4 -2 35.5 2.2
2 -4 -2 39 2.2
2 -4 -2 36.7 2.3
3 4 -2 88.29 3.5
-3 4 2 86.59 3.7
3 4 -2 86.29 2.6
3 -4 2 82.79 3.8
3 -4 2 84.09 3.2
-3 -4 -2 90.79 4.3
-3 4 2 86.49 3.8
-3 -4 -2 91.89 3.6
3 4 -2 88.69 3.6
3 -4 2 85.79 4.2
-3 -4 -2 85.59 3.7
3 -4 -2 86.29 3.8
-3 4 -2 92.19 3.7
-3 -4 2 86.49 2.3
-3 -4 2 92.59 4
3 -4 -2 87.39 3.5
-3 -4 2 93.99 4
3 -4 -2 92.89 3.9
-3 4 -2 90.49 3.9
3 4 2 86.69 3.5
3 4 2 90.69 2.9
3 4 2 94.19 3.6
4 4 -2 228.08 5.1
-4 4 2 215.98 6.8
-4 4 2 217.98 7
-4 -4 -2 215.88 7.5
4 4 -2 219.68 6.6
4 -4 2 222.48 6.1
4 -4 2 221.28 7.4
-4 4 2 230.78 7.1
4 -4 2 220.68 7.1
4 4 -2 211.08 6.2
-4 -4 -2 233.98 6.6
-4 -4 -2 219.08 6.8
-4 -4 2 217.78 7
-4 -4 2 204.18 6.7
4 -4 -2 211.38 6.8
-4 4 -2 218.08 7
4 -4 -2 213.38 5.8
-4 -4 2 218.88 5.1
4 4 2 215.68 6.6
4 4 2 221.18 6.5
-4 4 -2 217.38 6.7
4 -4 -2 220.98 6.5
4 4 2 226.38 5.5
4 -4 -2 222.28 6.9
5 -4 2 50.39 3.6
5 -4 2 50.39 3.8
-5 -4 -2 58.79 4.1
-5 4 2 50.49 3.5
-5 -4 -2 54.29 3.2
5 4 -2 55.79 3.3
-5 4 2 50.89 3.4
-5 -4 -2 47.5 3.3
5 -4 2 56.79 3.1
5 4 -2 52.49 3
-5 4 2 60.59 3.3
5 4 2 45.3 3
5 4 2 51.19 3.3
-5 -4 2 53.49 3.7
-5 4 -2 52.69 3.3
-5 4 -2 63.29 3.3
5 -4 -2 53.79 3.5
-5 -4 2 49.2 3.4
5 4 2 56.39 2.9
-5 4 -2 58.59 3.7
5 -4 -2 55.19 3.4
5 -4 -2 49.9 3.4
-6 -4 -2 88.19 4.8
6 -4 2 91.39 4.5
6 4 -2 88.59 4.5
6 -4 2 99.39 5.7
6 -4 2 77.19 4.8
-6 4 2 89.19 5
6 4 -2 89.19 4.2
-6 4 2 85.59 4.8
-6 4 2 87.89 4.3
-6 -4 -2 87.59 5.3
-6 -4 -2 86.39 4.3
-6 4 -2 93.29 4.4
6 -4 -2 91.89 4.9
6 -4 -2 88.39 4.7
6 4 2 87.89 4.4
-6 -4 2 97.79 5.1
-6 4 -2 91.29 5
-6 4 -2 88.39 4.5
-6 -4 2 90.59 5
6 4 2 85.09 4.6
6 -4 -2 84.09 4.7
7 -4 2 58.09 4.5
-7 -4 -2 61.19 4.9
-7 4 2 49.4 4
-7 -4 -2 55.99 3.8
7 -4 2 61.09 5
7 4 -2 61.69 4.2
-7 4 2 54.49 4.3
7 4 -2 62.49 3.8
7 4 -2 58.39 3.9
-7 4 -2 49.9 4.1
7 -4 -2 56.19 4.2
7 4 2 55.59 3.8
7 -4 -2 57.59 4.2
-7 -4 2 58.29 4.4
7 4 2 55.99 4.1
-7 -4 2 52.89 4.2
-7 4 -2 47.8 3.8
8 4 -2 10.3 2.5
-8 4 2 8.7 2.4
8 -4 2 13.2 3.4
8 4 -2 7.7 2.1
8 -4 2 11.8 2.8
-8 4 2 11 2.7
-8 -4 -2 7.1 2.4
8 4 2 14.1 2.6
8 -4 -2 6.6 2.4
-8 4 -2 10.3 2.5
-8 -4 2 10.4 2.6
-8 -4 2 12.1 2.6
8 -4 -2 11.4 2.6
8 4 2 9.9 2.6
-8 4 -2 11.2 2.5
9 4 -2 15.2 2.8
9 -4 2 12.6 3.3
9 4 -2 14.8 3
-9 4 2 15.2 3.1
-9 -4 -2 11.9 3
9 -4 2 12.2 3.7
-9 4 2 15.7 3.2
-9 -4 2 12.1 2.9
9 -4 -2 17.7 3.4
9 4 2 14.9 3.9
-9 4 -2 10.9 2.8
9 -4 -2 12.9 3
9 4 2 12.3 3
-9 -4 2 10.8 2.9
-9 4 -2 13.9 2.9
9 4 2 7.3 2.3
0 -5 2 117.69 4.5
0 5 2 120.19 3.9
0 5 2 119.79 3.5
0 -5 -2 118.29 4.1
0 5 -2 122.59 3.6
0 5 -2 113.69 3.9
0 5 2 118.39 3.9
0 5 -2 114.49 3.2
0 -5 -2 114.29 3.4
0 -5 -2 120.99 4.3
0 -5 2 115.39 4
0 -5 -2 118.09 3.1
0 -5 2 114.89 3.5
0 5 2 116.19 3.1
-1 -5 -2 606.44 12.1
1 -5 2 621.94 12.4
-1 -5 -2 632.44 13.4
1 5 -2 597.54 11.7
1 -5 2 628.94 13.6
1 5 -2 607.64 12.7
-1 5 2 625.84 12.6
-1 5 2 621.54 12.9
-1 -5 -2 627.84 11.3
-1 -5 -2 637.84 12.9
1 -5 2 617.74 12.6
-1 5 2 626.84 12.5
1 5 -2 621.04 12.2
1 -5 -2 637.24 13.3
-1 -5 2 641.14 11.5
-1 5 -2 621.74 12.8
-1 5 -2 615.44 11.2
1 5 2 617.04 12.5
-1 -5 2 650.33 13.2
-1 -5 2 623.14 13.5
1 -5 -2 605.94 12.5
1 -5 -2 620.14 12.9
-1 5 -2 618.44 12.5
1 5 2 622.84 12.8
-2 -5 -2 269.07 6.9
-2 5 2 271.67 7.3
-2 5 2 288.67 7.2
2 -5 2 261.17 7.7
2 5 -2 268.87 6.8
-2 -5 -2 272.47 6.9
2 5 -2 258.47 5.7
2 5 -2 269.47 6.9
2 -5 2 266.77 7.2
-2 -5 -2 265.37 7.8
2 -5 2 264.27 6.4
2 5 2 279.37 6.6
-2 -5 2 267.47 5.4
2 5 2 276.87 6.8
2 -5 -2 278.57 7.5
-2 5 -2 273.07 7.1
2 -5 -2 274.87 7.2
-2 -5 2 264.37 7.3
-2 5 -2 279.47 7.3
-2 -5 2 258.27 7.5
2 -5 -2 272.47 7.1
2 5 2 259.17 6.9
-2 5 -2 261.57 6.8
3 5 -2 732.73 15.3
3 5 -2 742.83 13.5
-3 -5 -2 771.42 16.8
3 5 -2 733.33 15.2
-3 5 2 776.82 15.1
3 -5 2 729.53 15.9
-3 5 2 721.33 15.7
3 -5 2 764.02 14.6
-3 -5 -2 768.92 15.6
-3 -5 -2 764.42 15.3
3 -5 2 737.93 16.4
-3 5 2 728.23 15.8
3 5 2 727.63 14.4
-3 5 -2 714.33 15.5
3 5 2 749.92 15.4
3 5 2 759.32 15.6
-3 5 -2 745.43 15.1
3 -5 -2 742.73 16.1
-3 -5 2 754.12 13.3
-3 -5 2 764.32 16.2
3 -5 -2 741.83 15.8
3 -5 -2 729.63 15.3
-3 5 -2 754.02 16
-3 -5 2 741.93 15.9
-4 -5 -2 110.89 4.5
4 5 -2 119.99 4.5
-4 -5 -2 117.99 4.9
-4 5 2 105.59 4.8
4 -5 2 110.49 5.3
-4 -5 -2 113.29 5.4
4 5 -2 114.39 4.6
4 -5 2 107.29 4
-4 5 2 126.79 4.5
-4 5 2 123.49 5
4 -5 2 110.59 5
-4 -5 2 107.09 4.8
4 -5 -2 113.39 4.7
-4 5 -2 118.29 4.8
4 5 2 112.99 4.6
4 5 2 122.29 3.9
-4 5 -2 108.59 4.8
-4 5 -2 113.79 4.3
4 -5 -2 114.99 5
4 5 2 123.69 4.8
-4 -5 2 121.19 5.2
4 -5 -2 118.09 4.9
5 5 -2 273.27 8.3
5 5 -2 276.47 8
-5 5 2 293.67 9.1
5 -5 2 297.07 10.3
-5 -5 -2 276.27 9.8
5 -5 2 276.17 9
-5 5 2 282.67 8.8
-5 5 2 290.47 8
-5 -5 -2 263.97 8.5
-5 -5 -2 275.87 9.5
5 -5 2 277.37 9.3
5 -5 -2 289.77 8.9
-5 -5 2 286.67 9.1
-5 5 -2 268.57 8.4
5 -5 -2 291.37 9
5 -5 -2 289.37 8.5
5 5 2 284.17 8.5
5 5 2 291.77 8.4
-5 -5 2 263.47 8.6
-5 5 -2 288.37 9
-6 5 2 12.8 2.3
-6 -5 -2 20 3.1
6 5 -2 16.2 2
-6 -5 -2 14.9 2.6
6 -5 2 11.5 2.7
6 5 -2 14.6 2.2
6 -5 2 17 2.8
-6 5 2 21.9 2.8
-6 5 -2 13.4 2.4
6 5 2 14.4 2.5
6 -5 -2 20.1 2.8
-6 -5 2 13.8 2.7
6 -5 -2 12.4 2.3
-6 5 -2 16.1 2.6
6 -5 -2 15.3 2.6
-6 -5 2 16.1 2.7
6 5 2 16.9 2.3
7 5 -2 0.8 1.2
7 -5 2 6 2.5
7 5 -2 2.8 1.3
-7 5 2 2.1 1.7
7 -5 2 -0.3 1.7
-7 5 2 2 1.6
-7 -5 -2 0.4 1.6
-7 5 -2 2.4 1.6
-7 -5 2 1.9 1.8
7 5 2 2.7 1.5
-7 -5 2 3.6 1.9
7 -5 -2 1.3 1.6
7 -5 -2 -1.2 1.3
-7 5 -2 0.2 1.2
7 5 2 2.1 1.6
8 -5 2 79.99 6.4
-8 5 2 73.09 5.3
8 -5 2 69.59 5.4
-8 -5 -2 67.69 5.7
8 5 -2 72.39 5
-8 5 2 73.39 5.4
8 5 -2 69.19 4.8
-8 -5 2 66.09 5.3
8 -5 -2 67.99 5.2
8 5 2 75.59 5.3
-8 5 -2 69.69 4.9
-8 -5 2 73.79 5.4
-8 5 -2 64.29 5.1
8 -5 -2 73.09 5.3
8 5 2 69.99 4.8
0 -6 -2 204.48 6.4
0 -6 2 201.18 6.6
0 6 -2 211.48 5.5
0 6 -2 213.58 5.2
0 6 2 207.78 4.8
0 -6 -2 204.88 6.1
0 6 -2 209.88 6.1
0 -6 2 208.98 5.9
0 6 2 212.08 5.9
0 6 2 211.28 6
0 -6 -2 201.38 4.9
0 -6 2 218.48 5.5
0 -6 -2 208.58 5.3
0 6 2 215.18 5.4
-1 6 2 41.6 2.5
-1 6 2 39.2 2.3
-1 -6 -2 34.6 2.8
1 6 -2 40.2 2.4
1 -6 2 38.9 2.4
-1 -6 -2 37.6 1.7
-1 -6 -2 37.5 2.1
1 6 -2 41.7 1.9
1 -6 2 37.1 2.3
1 6 -2 37.9 2.1
-1 6 2 39.1 2.3
1 -6 2 38.4 3
-1 -6 -2 35.3 2.5
-1 -6 2 40 1.9
1 6 2 39.4 2.4
-1 -6 2 40 2.7
1 -6 -2 41.1 2.8
1 -6 -2 40.2 2.7
-1 6 -2 35.9 2.2
-1 6 -2 41.9 1.7
-1 6 -2 40.4 2.4
-1 -6 2 38.3 2.9
1 6 2 38 2
1 -6 -2 37.5 2.3
1 6 2 41.1 2.4
-2 -6 -2 61.49 3.1
2 -6 2 62.59 3.8
2 -6 2 71.89 3.5
-2 -6 -2 71.99 3.3
2 6 -2 64.89 3.1
2 6 -2 68.79 3.1
2 -6 2 66.29 2.9
-2 6 2 66.29 3.4
2 6 -2 70.89 2.4
-2 -6 -2 69.09 3.9
-2 6 2 72.49 3.4
2 -6 -2 67.49 3.5
-2 6 -2 67.79 3.2
-2 -6 2 71.89 3.6
2 6 2 67.09 3.3
-2 -6 2 73.79 2.4
2 6 2 74.49 3.1
-2 6 -2 67.89 3.2
2 6 2 69.69 3
-2 -6 2 69.99 3.8
2 -6 -2 65.49 3.5
2 -6 -2 73.69 3.5
-3 -6 -2 189.68 6.2
-3 -6 -2 206.38 7.3
-3 6 2 199.28 5.8
3 6 -2 183.78 5.9
3 -6 2 198.28 5.4
3 -6 2 188.68 6.9
-3 -6 -2 200.68 6.1
3 -6 2 196.78 6.6
-3 6 2 200.48 6.6
-3 6 2 187.98 6.3
3 6 -2 192.38 6
-3 6 -2 205.58 6.2
-3 -6 2 201.38 4.6
-3 -6 2 189.38 6.8
3 -6 -2 193.08 6.7
3 6 2 181.38 6.1
3 6 2 204.18 5.7
3 -6 -2 205.78 6.6
3 6 2 203.68 6.1
3 -6 -2 201.98 6.4
-3 -6 2 203.38 6.6
-3 6 -2 185.98 6.2
4 6 -2 57.19 3.3
4 -6 2 52.49 4
4 -6 2 57.09 3.8
4 6 -2 56.49 3.2
-4 6 2 59.49 3.6
-4 6 2 60.79 3.1
-4 6 2 63.89 3.8
-4 -6 -2 63.39 3.7
-4 -6 -2 58.09 4.2
-4 6 -2 56.29 3.4
4 6 2 56.69 2.8
4 6 2 52.29 3.3
4 -6 -2 60.99 3.7
4 -6 -2 62.19 3.8
-4 -6 2 65.19 3.9
-4 -6 2 60.89 4
4 -6 -2 51.59 3.5
4 6 2 58.59 3.4
-4 6 -2 63.29 3.3
5 -6 2 26.8 3.4
-5 6 2 27.5 2.9
5 6 -2 26.5 2.4
-5 6 2 27.9 2.8
5 -6 2 27.2 3.1
5 6 -2 28.6 2.6
-5 -6 -2 26.2 3
-5 6 2 26.4 2.4
-5 -6 -2 22.8 3.2
5 6 2 26.3 2.6
5 -6 -2 29.3 3.1
-5 6 -2 30.3 2.8
5 -6 -2 21.1 2.9
5 -6 -2 25.2 2.9
-5 -6 2 30.5 3.4
5 6 2 25.3 2.6
-5 6 -2 26.6 2.4
-5 6 -2 25.6 2.8
-5 -6 2 28.2 3.1
-6 -6 -2 3 2
6 -6 2 6.9 2.5
6 6 -2 5.7 1.8
-6 -6 -2 3.4 1.8
-6 6 2 5.5 1.8
6 6 -2 6.3 1.5
6 -6 2 4.8 2.1
-6 6 2 5.6 1.8
6 -6 -2 3.3 1.9
-6 -6 2 5.7 2.1
6 -6 -2 6.3 2.1
6 -6 -2 5.6 1.9
6 6 2 2.2 1.5
-6 6 -2 7 2
-6 6 -2 3.6 1.6
-6 -6 2 2.4 1.7
6 6 2 5.2 1.7
-6 6 -2 6.6 1.9
-7 -6 -2 10.9 2.8
7 -6 2 14.4 2.9
7 6 -2 13.5 2.3
-7 6 2 14.2 2.8
-7 -6 -2 16.5 3
7 6 -2 12.5 2.5
-7 6 2 9.5 2.3
7 -6 2 15.2 3.5
-7 -6 2 13.9 3
7 -6 -2 19.4 3.4
7 -6 -2 11.7 2.9
7 6 2 12.6 2.7
-7 -6 2 14.9 3
7 6 2 10.5 2.4
-7 6 -2 12.7 2.6
8 6 -2 11.7 2.7
8 6 -2 13.3 2.9
8 -6 2 12.3 3.2
-8 6 2 12.9 2.9
8 -6 2 10.8 3.3
-8 6 2 12.3 2.7
-8 -6 -2 13.1 3.3
8 6 2 11.5 2.7
-8 -6 2 9.7 2.9
-8 -6 2 6.9 2.5
8 -6 -2 11.1 3.1
8 -6 -2 12.2 3
8 6 2 12.9 2.7
-8 6 -2 9.7 2.6
0 7 2 233.88 6.9
0 -7 -2 244.38 5.7
0 -7 -2 247.38 7.6
0 7 2 244.28 6.3
0 -7 2 228.88 7.6
0 -7 -2 250.97 7.2
0 7 -2 252.37 7.2
0 7 -2 245.38 6
0 7 2 246.58 6.9
0 7 -2 256.47 6.4
0 -7 2 253.87 6.9
0 7 2 245.28 5.6
0 -7 -2 244.98 6.2
0 -7 2 248.68 6.5
1 -7 2 783.02 15.2
1 7 -2 756.52 14.5
-1 -7 -2 755.62 14.1
-1 -7 -2 748.13 16.7
-1 7 2 774.22 15.5
1 -7 2 740.53 15.7
-1 -7 -2 739.73 14.9
-1 7 2 746.03 13.2
1 -7 2 743.53 16.9
-1 7 2 722.53 15.9
-1 7 2 759.12 15.4
1 7 -2 741.93 14.9
1 7 -2 745.33 15.9
-1 -7 -2 761.82 15.9
1 7 2 761.52 15.6
1 7 2 738.83 14.6
-1 -7 2 751.12 16.9
-1 -7 2 773.22 15.9
1 -7 -2 774.42 16.5
-1 7 -2 751.42 15.5
-1 7 -2 762.62 15.9
1 7 2 761.52 15.7
-1 -7 2 760.82 14.6
-1 7 -2 766.52 14.2
1 -7 -2 786.92 18.6
1 -7 -2 757.92 16.3
-2 -7 -2 11.6 2.2
2 7 -2 12.3 1.6
-2 7 2 8.9 1.6
-2 7 2 7.4 1.5
2 -7 2 7.8 1.4
2 7 -2 10.3 1.5
2 -7 2 12.1 2.1
2 7 -2 11.9 1.1
-2 -7 -2 13.5 1.8
-2 -7 -2 12.5 1.8
2 -7 2 9.6 1.8
-2 7 -2 9.6 1.6
2 -7 -2 10.2 1.8
2 -7 -2 7.2 1.7
-2 -7 2 12.5 1.3
2 -7 -2 13.5 2
2 7 2 11.1 1.5
-2 -7 2 11.2 2.1
2 7 2 10.3 1.5
-2 7 -2 10.1 1
2 7 2 10.7 1.6
-2 -7 2 10.2 1.8
-2 7 -2 9.2 1.5
3 7 -2 34.4 2.5
-3 -7 -2 35.7 3.3
3 7 -2 34.6 2.5
-3 -7 -2 34.8 2.9
-3 -7 -2 37.5 3.3
-3 7 2 38.8 2.9
-3 7 2 37.6 2.4
-3 7 2 37.5 2.9
3 -7 2 40.6 3.5
3 -7 2 32 2.8
3 7 2 35.3 2.4
3 7 2 35 2.5
-3 -7 2 38.9 3
-3 7 -2 43.1 2.9
3 -7 -2 31.6 2.8
-3 -7 2 40.7 3.4
-3 7 -2 39.5 2.7
3 -7 -2 29.4 2.8
3 7 2 36 2.7
3 -7 -2 28.3 2.8
4 -7 2 158.88 6.9
-4 7 2 163.48 6.4
4 -7 2 155.78 6.4
4 7 -2 160.88 5.8
-4 -7 -2 157.78 7.1
-4 -7 -2 151.98 6.1
-4 7 2 159.28 6.4
4 7 -2 158.98 5.9
-4 7 2 167.98 5.5
4 -7 -2 155.58 6.6
-4 -7 2 164.38 6.9
-4 7 -2 167.68 6
4 -7 -2 156.48 6.3
-4 -7 2 150.68 6.3
4 7 2 161.58 6
4 7 2 167.08 5.5
-4 7 -2 173.78 6.3
4 7 2 165.78 6.2
4 -7 -2 164.08 6.5
5 7 -2 120.59 5.4
5 -7 2 133.99 6.7
5 7 -2 104.19 4.9
-5 7 2 120.09 5.8
-5 -7 -2 112.29 5.7
-5 7 2 126.29 5.9
-5 -7 -2 121.29 6.6
5 -7 2 117.69 5.9
-5 -7 2 116.49 6.3
-5 7 -2 120.09 5.6
5 7 2 115.89 5.4
-5 -7 2 117.49 5.9
5 -7 -2 117.49 5.9
5 7 2 120.69 5.5
5 -7 -2 119.49 5.9
5 -7 -2 115.29 5.7
-5 7 -2 127.09 5.4
-6 7 2 60.19 4.6
6 -7 2 58.99 5.2
6 7 -2 69.69 4.5
-6 -7 -2 78.69 5.1
-6 7 2 72.49 4.8
-6 -7 -2 66.99 5.4
6 -7 2 58.49 4.7
6 7 -2 66.29 4
6 7 2 56.59 4.2
-6 7 -2 60.99 4.1
6 -7 -2 69.19 5
-6 7 -2 62.89 4.3
-6 -7 2 66.09 4.8
-6 -7 2 64.09 5
6 7 2 71.79 4.5
6 -7 -2 68.19 4.9
-7 -7 -2 51.49 5.2
7 -7 2 47.7 5.3
-7 7 2 55.89 4.7
7 7 -2 50.09 4.1
-7 -7 -2 47.6 4.6
-7 7 2 49.4 4.4
7 -7 2 52.59 4.7
7 7 -2 51.79 3.8
7 7 2 51.89 4.4
7 -7 -2 49.7 4.6
-7 -7 2 50.79 5
7 7 2 51.69 4.3
7 -7 -2 50.69 4.6
-7 7 -2 46.2 4.3
-7 -7 2 53.89 5
-8 7 2 -0.6 1.8
-8 7 2 2.2 1.8
8 -7 2 2.7 2.4
8 7 -2 3 1.8
8 7 -2 1.9 1.9
-8 -7 -2 -0.8 1.8
8 -7 2 5.6 3.2
-8 -7 2 -1.5 2
8 7 2 3.9 2.3
8 7 2 2.6 1.9
8 -7 -2 1.7 1.9
8 -7 -2 2.5 2.1
-8 7 -2 1.3 1.9
-8 -7 2 2.5 2.2
0 -8 2 241.98 6.6
0 8 2 235.98 6.3
0 8 -2 226.38 6.3
0 8 2 225.58 7
0 -8 -2 226.38 7.2
0 -8 -2 223.58 6.2
0 8 2 235.48 6.9
0 8 -2 235.68 6.1
0 -8 2 227.98 6.7
0 -8 2 220.98 7.9
0 8 2 226.68 5.5
0 8 -2 234.08 7.2
0 -8 -2 223.38 7.6
-1 -8 -2 43.9 2.2
-1 8 2 46.9 2.9
1 -8 2 42.7 3.7
-1 -8 -2 41.6 3
-1 8 2 46 2.8
1 -8 2 48 2.9
1 8 -2 50.19 2.4
-1 -8 -2 39.1 2.6
1 8 -2 44.8 2.6
1 -8 2 47 3
1 8 -2 47.4 3.1
-1 8 2 37.8 2.8
-1 -8 -2 41.5 3.4
1 8 2 49.1 2.5
1 8 2 45.3 2.9
-1 8 -2 39.7 2.8
-1 8 -2 44.3 2.2
1 -8 -2 41.6 3.4
-1 -8 2 38 2.9
1 -8 -2 47.4 3.3
-1 8 -2 47.1 2.7
-1 -8 2 45.7 3.7
1 8 2 42.3 2.9
-1 -8 2 47.9 2.6
2 -8 2 1.7 1.2
2 8 -2 3.3 1.2
-2 -8 -2 2.5 1.3
-2 -8 -2 5.5 1.5
-2 8 2 1.8 1.1
-2 -8 -2 4.7 1.7
-2 8 2 5.5 1.5
2 -8 2 0.7 1.5
2 8 -2 2.5 1
-2 8 -2 3 1.1
2 8 2 2.5 1.1
2 8 2 2 1
2 -8 -2 4 1.6
2 -8 -2 3.3 1.4
-2 -8 2 0.6 1.3
-2 -8 2 0.2 1.5
-2 8 -2 2.5 1.1
2 -8 -2 1.9 1.3
-3 -8 -2 18.2 3
3 8 -2 18.3 2.2
3 8 -2 19.8 2.2
-3 8 2 20.5 2.4
-3 8 2 19.5 2.4
3 -8 2 17.4 2.9
-3 8 2 22.2 2.1
3 -8 2 23.3 2.7
-3 -8 -2 19.1 2.6
-3 -8 2 17.7 2.8
3 -8 -2 19.5 2.9
3 -8 -2 20.1 2.6
3 -8 -2 17.9 2.6
3 8 2 22 2.5
-3 -8 2 16.7 2.7
-3 8 -2 20.6 2.3
-3 8 -2 24.1 2.4
3 8 2 20.9 2.1
3 8 2 18.1 2.1
-4 -8 -2 192.58 7.1
-4 -8 -2 180.78 8.1
-4 8 2 173.58 6.9
4 -8 2 179.98 7.8
4 8 -2 185.38 6.7
4 8 -2 183.18 6.6
4 -8 2 184.98 7.3
-4 8 2 203.68 7.5
4 -8 -2 195.38 7.3
-4 8 -2 181.28 6.9
-4 8 -2 178.38 6.6
4 -8 -2 166.58 7.2
4 -8 -2 186.58 7.3
4 8 2 192.48 6.8
-4 -8 2 184.68 7.8
4 8 2 186.78 6.2
4 8 2 181.68 6.8
-4 -8 2 194.28 7.3
5 -8 2 38 3.8
5 -8 2 38.2 4.4
-5 8 2 40.9 3.6
5 8 -2 48.1 3.4
-5 8 2 48.6 4
5 8 -2 45.1 3.5
-5 -8 -2 45.7 4.4
-5 -8 -2 35.2 3.3
-5 -8 -2 42.5 3.9
-5 -8 2 42.9 4
-5 -8 2 37.8 4.2
5 -8 -2 36.4 3.9
-5 8 -2 42.5 3.4
5 8 2 35.8 3.4
5 -8 -2 35.9 3.7
5 8 2 45.2 3.6
5 -8 -2 39.5 3.9
-5 8 -2 49.7 3.8
-6 8 2 49 4.3
-6 -8 -2 50.19 5.1
6 -8 2 55.39 5.4
6 8 -2 56.09 3.9
6 8 -2 53.19 4.1
-6 -8 -2 56.49 4.7
-6 8 2 57.69 4.6
6 -8 2 48.2 4.5
6 -8 -2 55.89 4.7
6 8 2 53.89 4.3
6 -8 -2 46.5 4.4
-6 8 -2 57.89 4.1
-6 8 -2 47.6 4
6 8 2 53.29 4.2
-6 -8 2 49.9 4.9
-6 -8 2 52.19 4.8
-7 8 2 2.8 1.8
7 -8 2 7.8 2.7
-7 -8 -2 7.1 2.8
7 8 -2 8 2
-7 -8 -2 6.7 2.6
7 8 -2 6.2 2.1
7 -8 2 10 3.5
-7 8 2 6.2 2.4
7 -8 -2 7.8 2.8
-7 8 -2 6.6 2.2
7 -8 -2 4.8 2.3
7 8 2 6 2.4
7 8 2 8 2.4
-7 -8 2 6.1 2.6
-7 8 -2 2.8 2.5
-7 -8 2 2.4 2.3
0 -9 2 78.69 5
0 -9 -2 80.19 3.6
0 9 2 74.89 4
0 -9 2 76.49 3.9
0 9 -2 80.89 3.4
0 -9 -2 80.59 4.3
0 9 2 78.89 3.5
0 -9 -2 77.49 4.8
0 -9 2 79.69 3.8
0 9 -2 73.89 4.1
0 9 2 77.29 4
0 9 -2 85.89 3.6
-1 -9 -2 22.5 2.6
1 9 -2 17.7 2.3
-1 -9 -2 21.1 3.2
-1 9 2 21.9 2.2
1 -9 2 20 2.5
-1 9 2 14.7 2.2
-1 9 2 25.5 2.5
1 -9 2 27.5 3.4
-1 -9 -2 23.1 3.1
-1 9 -2 23.8 2.3
1 9 2 23.5 2.5
-1 9 -2 20 2.3
1 9 2 23 2.4
-1 -9 2 21.2 2.2
1 9 2 22.3 1.9
1 -9 -2 18.5 3.1
1 -9 -2 18.3 2.6
-1 -9 2 22.9 2.6
-1 -9 2 27 3.4
2 -9 2 95.59 5.6
-2 -9 -2 113.49 4.7
-2 9 2 100.99 4.4
-2 -9 -2 100.29 5.7
2 9 -2 113.89 4.6
-2 9 2 98.69 4.9
-2 -9 -2 106.89 4.8
2 9 -2 103.79 4.9
2 -9 2 96.89 4.8
-2 9 2 99.29 4.6
2 -9 -2 95.99 5.2
2 -9 -2 100.69 4.8
-2 -9 2 96.49 5.5
-2 9 -2 101.29 4.9
-2 -9 2 106.89 5
2 9 2 104.69 4.7
2 -9 -2 98.19 5.4
-2 9 -2 96.69 4.5
2 9 2 98.19 4.7
3 -9 2 39.7 3.5
3 -9 2 43.1 4.3
3 9 -2 37.6 3.1
3 9 -2 42.8 3.1
-3 -9 -2 40.3 3.3
-3 9 2 42.1 3.5
-3 9 2 43.6 3.4
-3 -9 -2 43.7 4.3
-3 9 2 45.4 3
-3 -9 2 49.4 3.9
3 -9 -2 32.8 3.3
-3 -9 2 40.7 4
-3 9 -2 40.9 3.1
3 9 2 43.9 3.4
3 9 2 39.9 3
3 -9 -2 38.8 3.6
3 9 2 40.3 3
3 -9 -2 47.8 4
-3 9 -2 39.4 3.2
-4 -9 -2 47.5 4.8
-4 9 2 37.6 3.6
-4 -9 -2 43.9 3.9
4 -9 2 45.1 4.7
4 -9 2 43.8 3.9
4 9 -2 43.9 3.3
-4 9 2 47.6 3.8
4 9 -2 46.5 3.4
4 -9 -2 45.2 4.2
-4 -9 2 47.2 4.5
4 9 2 38.4 3.4
-4 9 -2 43 3.5
4 -9 -2 41.7 4
-4 -9 2 47.3 4.1
4 9 2 43.4 3.4
4 9 2 43.8 3.2
-4 9 -2 43.5 3.4
4 -9 -2 49.5 4
5 -9 2 5 2.6
5 9 -2 3 1.4
5 9 -2 3.4 1.6
-5 -9 -2 5.6 2.2
-5 -9 -2 4.4 2.6
-5 9 2 4.6 2
5 -9 2 0.9 2
-5 9 2 3.9 1.8
5 -9 -2 0.5 1.7
-5 -9 2 2.8 2.1
5 9 2 1.3 1.4
5 9 2 1.9 1.4
5 -9 -2 1.7 1.7
5 -9 -2 2.3 2.3
-5 9 -2 0.8 1.4
-5 -9 2 1.6 2.1
-5 9 -2 1.3 1.3
6 9 -2 8 2.2
-6 9 2 6.2 2.1
-6 -9 -2 4.8 2.5
-6 9 2 2.3 1.7
-6 -9 -2 2.8 2.5
6 -9 2 8.2 2.6
6 -9 2 9.2 3.3
6 9 -2 5.6 1.8
6 -9 -2 8.7 2.7
6 9 2 9 2.4
6 -9 -2 6.7 2.5
-6 9 -2 8.6 2.5
-6 -9 2 7 2.7
6 9 2 8.2 2.3
-6 9 -2 8.8 2.1
-6 -9 2 8.8 2.8
7 9 -2 1.9 1.6
-7 9 2 1.5 1.8
7 9 -2 1.6 1.9
7 -9 2 2.1 2.2
-7 -9 -2 1.9 2.4
-7 9 2 1.6 1.8
7 9 -2 2.1 1.8
-7 -9 -2 2.2 2.4
7 -9 2 -2.5 2.8
7 -9 -2 -1.3 1.9
7 9 2 -0.9 1.6
-7 9 -2 -0.3 1.6
7 -9 -2 -1.7 2.1
-7 9 -2 2.6 1.8
-7 -9 2 -1.1 2.3
7 9 2 -0.6 1.6
-7 -9 2 -1 2.1
0 10 -2 144.39 5.1
0 -10 2 152.68 5.7
0 -10 -2 143.19 6.9
0 10 2 151.38 5.9
0 10 -2 152.28 5.3
0 -10 2 145.79 7
0 10 2 137.59 5.9
0 10 -2 141.69 6
0 -10 -2 146.99 6.1
-1 -10 -2 18 2.7
-1 10 2 16.8 2.2
1 -10 2 20.2 3.4
-1 -10 -2 15.9 3
-1 10 2 17.1 2.5
1 -10 2 15.7 2.6
1 10 -2 21 2.7
-1 10 2 18.8 3.3
1 10 2 17.5 2.7
-1 10 -2 20.2 2.3
-1 10 -2 17 2.4
1 -10 -2 12 2.4
1 10 2 19.9 2.4
1 -10 -2 14.8 2.9
-1 -10 2 12.7 2.8
-1 -10 2 18.3 2.7
2 10 -2 32.2 3.1
2 10 -2 33.1 2.8
-2 -10 -2 31.5 3.1
-2 10 2 33.9 2.8
2 -10 2 30.9 4.3
-2 10 2 28.2 2.8
-2 -10 -2 40.4 4.2
-2 10 2 34.1 3.2
-2 -10 -2 36.8 4.5
2 -10 2 31.5 3.3
2 10 2 40.9 3.2
-2 10 -2 39.3 3
-2 -10 2 38.3 4
-2 10 -2 35.5 3.2
2 -10 -2 30 3.8
-2 -10 2 37.2 3.5
2 10 2 31.5 2.9
2 -10 -2 30.6 3.2
2 -10 -2 34.6 3.5
2 10 2 35.1 3.2
3 10 -2 12.7 2.4
3 -10 2 11.3 2.6
3 10 -2 14.9 2.4
-3 10 2 15.6 2.8
-3 -10 -2 12.9 3
3 -10 2 14.7 3.1
-3 10 2 12.1 2.3
-3 -10 -2 11.8 2.3
-3 -10 2 10.9 2.4
-3 10 -2 10.7 2.2
3 -10 -2 13 2.8
3 -10 -2 13.5 2.8
-3 -10 2 12.2 2.9
3 -10 -2 13.6 2.6
3 10 2 11.3 2.1
3 10 2 9.7 2
-3 10 -2 9.4 2.1
3 10 2 11.6 2.3
4 -10 2 1.2 1.7
4 10 -2 2.1 1.5
-4 10 2 -0.5 1.3
-4 -10 -2 1.4 2.1
4 10 -2 0.7 1.2
-4 -10 -2 1.5 1.8
4 -10 2 0.1 2.2
-4 10 2 1.8 1.6
-4 10 -2 1.9 1.5
-4 10 -2 -0.8 1
4 10 2 -0.3 1.2
-4 -10 2 1 1.9
4 -10 -2 0.4 1.6
4 -10 -2 2.4 2.3
-4 -10 2 3.4 2.3
4 10 2 -0.5 1.3
4 -10 -2 2.3 2
4 10 2 -0.3 1.3
5 -10 2 32.8 4.1
-5 -10 -2 35.4 4.1
-5 10 2 31.6 3.7
-5 -10 -2 38.7 4.9
5 10 -2 32 3.5
5 10 -2 34.9 3.4
-5 10 2 38.4 4
5 -10 2 27.4 4.5
5 10 2 37.4 3.8
-5 -10 2 36.9 4.3
5 -10 -2 26.6 3.7
5 -10 -2 34.2 4.1
-5 10 -2 34.5 3.6
-5 -10 2 38.9 4.5
-5 10 -2 33.1 3.5
5 10 2 34.6 3.5
-6 -10 -2 5.5 2.9
-6 10 2 5.4 2.2
-6 10 2 7.7 2.6
6 -10 2 9.9 3
6 -10 2 5.7 3.3
6 10 -2 9 2.4
-6 -10 -2 6.3 2.7
6 10 -2 9.9 2.2
-6 -10 2 5.7 2.9
6 -10 -2 6.4 2.8
-6 -10 2 11.4 3.2
6 10 2 5.9 2
6 10 2 9.4 2.4
6 -10 -2 7.8 2.7
-6 10 -2 7.3 2.1
-6 10 -2 10.7 2.8
0 -11 2 41 4.7
0 -11 -2 43.6 3.8
0 11 2 48.5 3.8
0 -11 -2 43.5 4.7
0 11 -2 39.4 3.5
0 11 2 42.2 3.7
-1 -11 -2 37 4.5
1 11 -2 35.7 3.4
-1 11 2 30.8 3.2
1 -11 2 30.6 3.9
1 -11 2 32 4.4
-1 -11 -2 30.3 3.4
-1 11 -2 36.7 3.4
1 11 2 31.3 3.1
-1 11 -2 31.8 2.8
1 -11 -2 42.1 3.7
1 -11 -2 40.8 4.5
-1 -11 2 36.9 4.5
1 -11 -2 35.1 3.7
1 11 2 36.7 3.5
-2 11 2 23.8 2.9
2 -11 2 19.8 3.6
2 11 -2 19.6 2.6
-2 11 2 16.2 2.7
-2 -11 -2 24.1 3
2 -11 2 22.6 3.2
-2 -11 -2 26.3 4.1
2 11 -2 23.7 3
2 11 2 22 2.7
2 -11 -2 23.9 3.1
-2 -11 2 25.9 3.3
2 -11 -2 24.4 4
-2 -11 2 25.1 4
-2 11 -2 23.8 2.7
2 -11 -2 21.5 3.3
-2 11 -2 22.3 2.9
2 11 2 18.1 2.7
3 -11 2 109.19 6.1
-3 11 2 112.49 5.8
3 11 -2 125.09 6.1
3 11 -2 113.89 5.5
-3 11 2 105.69 6
3 -11 2 101.49 7
-3 -11 -2 118.19 7.1
-3 -11 2 112.29 7
3 -11 -2 119.89 6.1
-3 11 -2 108.89 5.7
3 11 2 117.59 5.9
-3 11 -2 119.59 5.7
-3 -11 2 126.49 6.2
3 11 2 113.19 5.2
3 11 2 108.79 5.4
3 -11 -2 114.39 6.7
3 -11 -2 111.89 6.4
4 -11 2 1.8 2.9
-4 -11 -2 9.2 2.6
-4 11 2 6.7 2.3
4 11 -2 10.1 2.3
-4 -11 -2 5.1 2.8
4 -11 2 8.1 2.6
4 11 -2 7.7 2.1
-4 11 2 4.3 1.9
-4 -11 2 9.5 2.6
4 11 2 9.3 2.2
4 11 2 7.5 1.9
4 -11 -2 5 2.2
-4 -11 2 6.2 2.8
4 11 2 6.7 2.1
-4 11 -2 6.9 1.9
4 -11 -2 5.7 2.6
-4 11 -2 4.7 1.9
4 -11 -2 5.3 2.3
-5 11 2 5.6 2.2
-5 -11 -2 5.7 2.9
5 -11 2 5.2 3.5
-5 11 2 5.6 2.3
5 11 -2 6.6 2.3
-5 -11 -2 8 2.7
5 -11 2 8.2 3
5 11 -2 10.2 2.5
5 11 2 6.3 2.1
5 -11 -2 7.2 2.6
-5 -11 2 12.1 3.4
-5 11 -2 8.9 2.3
-5 -11 2 5 2.7
5 11 2 4.4 1.9
5 -11 -2 10.3 3
-5 11 -2 6.9 2.1
-6 11 2 3.1 2.1
0 -12 2 46 5
0 12 2 45.5 4
0 -12 -2 39.9 4.7
0 12 2 45.3 3.8
0 12 -2 41.2 3.9
0 -12 -2 38.9 4
-1 12 2 28.1 3.3
1 -12 2 25.1 3.9
1 12 -2 22 3.1
1 -12 2 27.4 4.6
-1 -12 -2 28.6 3.4
-1 -12 -2 31 4.7
-1 -12 2 19.1 3.7
1 12 2 25.7 3.3
1 12 2 26.5 3.1
1 -12 -2 35.1 4.6
-1 12 -2 31.1 3.4
1 -12 -2 20.9 3.4
2 12 -2 39.1 3.3
-2 12 2 26.6 3.4
2 -12 2 27.1 3.7
-2 -12 -2 31.1 3.6
-2 -12 -2 39.6 5.1
2 12 -2 28.7 3.5
2 -12 2 31.8 5.1
-2 12 -2 32 3.4
2 -12 -2 32.2 4.8
2 -12 -2 26.7 3.7
2 12 2 28.7 3.3
2 -12 -2 32 3.6
2 12 2 30.8 3.6
-2 -12 2 32.8 4.7
-2 12 -2 31.4 3.3
-3 12 2 148.29 6.8
3 -12 2 129.09 7
3 -12 2 134.29 8.1
-3 -12 -2 160.68 8.6
-3 12 2 126.19 6.8
3 12 -2 131.09 6.2
3 12 -2 148.39 7
3 -12 -2 147.29 8
-3 -12 2 136.19 6.8
-3 12 -2 134.39 6.3
-3 12 -2 129.89 6.7
3 -12 -2 149.79 7
3 -12 -2 132.49 7.3
3 12 2 143.79 6.7
3 12 2 133.79 6.4
-3 -12 2 133.89 8.1
4 12 -2 23.5 3.4
-4 12 2 23.3 3.6
4 -12 2 25.4 4.8
-4 12 2 24.5 3.6
4 -12 2 25.1 4.1
-4 -12 -2 20.7 4.3
4 12 -2 21.5 3.2
-4 12 -2 19.9 3.2
4 12 2 26.1 3.2
4 -12 -2 26 4.5
4 -12 -2 28.5 4.1
-4 -12 2 31 4.8
4 12 2 30 3.9
-4 -12 2 31.1 4.4
4 -12 -2 34 4.1
-4 12 -2 32.8 3.7
5 -12 2 6.2 3.5
-5 -12 -2 4.6 3.1
5 12 -2 6.5 2.5
-5 -12 -2 9.6 3.1
5 12 -2 5 2.1
-5 12 2 6.5 2.5
5 -12 2 8.1 2.9
-5 12 2 9.7 2.8
5 -12 -2 8.8 2.9
5 12 2 6.3 2.3
-5 12 -2 5.9 2.3
-5 -12 2 8 3.3
5 12 2 3.9 1.9
-5 12 -2 8.7 2.8
-5 -12 2 1.8 2.7
5 -12 -2 4.3 2.6
0 13 -2 0.2 1.7
0 13 2 2 1.9
0 -13 -2 2.9 2.2
0 -13 -2 3.8 2.7
0 13 2 4 2.1
0 -13 2 1.5 2.6
-1 -13 -2 15.9 3.1
1 -13 2 13 3.6
-1 -13 -2 15 4
-1 13 2 11.8 2.5
1 13 -2 16.9 3.1
1 13 2 11 2.6
-1 13 -2 16.9 3
1 -13 -2 19.9 3.7
-1 -13 2 4.5 3
1 13 2 22.1 3.2
1 -13 -2 14.3 3.6
2 13 -2 5 2.2
-2 -13 -2 6 3
-2 13 2 2.4 1.8
2 -13 2 -1.2 2.9
2 -13 2 7.5 2.5
2 13 -2 2.6 2.7
2 -13 -2 7.2 3.4
2 -13 -2 5 2.7
2 13 2 3.1 1.8
-2 13 -2 6.8 2.2
2 13 2 3.7 2.2
-2 -13 2 3.7 3
-3 -13 -2 4.7 3
3 -13 2 4.8 3.3
3 13 -2 2.7 1.7
3 13 -2 0.4 1.8
-3 13 2 0.9 1.9
3 -13 2 3.8 2.7
3 13 2 5.9 2.2
-3 -13 2 1.9 3
3 -13 -2 0.6 2.1
-3 13 -2 2.9 1.9
-3 13 -2 3.8 1.9
3 -13 -2 3.2 2.5
3 -13 -2 1.9 3.1
3 13 2 4.3 2
0 14 -2 24.7 3.7
0 -14 2 16.8 4.3
0 -14 -2 28.4 4.1
0 14 2 21.1 3.6
0 -14 -2 23.9 4.7
-1 -14 -2 20.2 4.3
1 -14 2 28.7 5.2
-1 14 2 17.2 3.2
1 14 -2 18.3 3.5
-1 -14 2 16 4.4
1 -14 -2 19.7 4.3
-1 14 -2 21.1 3.5
1 14 2 17.2 3.2
1 -14 -2 17.7 3.5
1 14 2 19.2 3.3
0 0 3 -0.8 0.7
0 0 3 -0.8 0.5
0 0 3 -0.6 0.5
0 0 3 -0.4 0.6
0 0 -3 -0.6 0.5
0 0 -3 1.4 0.6
1 0 -3 0.1 0.5
1 0 -3 0 0.6
-1 0 -3 1.1 0.7
-1 0 3 -0.7 0.6
-1 0 -3 0.6 0.6
1 0 3 0.2 0.7
-1 0 -3 0.6 0.7
-1 0 3 -1.4 0.7
-1 0 3 -1.1 0.6
1 0 3 0.5 0.5
1 0 3 0.2 0.7
1 0 -3 0.4 0.6
-2 0 3 2231.88 38.7
-2 0 3 2235.18 38.3
2 0 -3 2188.98 37.9
2 0 3 2216.88 37.4
2 0 -3 2233.08 38.3
2 0 3 2190.98 38.3
-2 0 -3 2233.78 38.4
-2 0 -3 2177.58 38.4
2 0 -3 2249.68 37.4
-2 0 3 2231.88 39
2 0 3 2213.68 38.8
-2 0 3 2206.18 36.8
-2 0 -3 2218.58 37.9
3 0 -3 -0.5 0.7
3 0 -3 0.3 0.5
3 0 3 0.8 0.5
-3 0 3 1.5 0.8
-3 0 3 0.1 0.6
-3 0 3 0.8 1
3 0 3 1.2 1.1
3 0 -3 0.1 0.6
-3 0 3 1.1 0.9
-3 0 -3 0.9 0.8
3 0 3 1.6 0.9
-3 0 -3 1 0.9
-4 0 -3 106.69 4.3
4 0 3 106.19 3.4
4 0 -3 106.69 3.9
4 0 -3 105.89 3.6
-4 0 3 105.89 4.5
-4 0 -3 105.99 3
-4 0 3 100.69 4.6
4 0 3 107.59 2.8
4 0 -3 102.89 4.1
4 0 3 101.59 4.7
-4 0 3 106.79 3.6
-4 0 3 107.69 3.9
-4 0 -3 106.19 4.5
4 0 3 119.19 4.4
5 0 3 1.2 0.7
5 0 3 1.3 1.4
5 0 -3 2.6 0.9
5 0 -3 2.6 1.1
-5 0 3 0.7 0.9
-5 0 3 2.5 1.1
5 0 -3 2.1 1
5 0 -3 2.2 1
-5 0 -3 1.1 0.9
-5 0 3 0.8 0.8
-5 0 3 1.9 1.2
-5 0 -3 -0.5 0.7
5 0 3 1.7 1.1
6 0 -3 236.68 7
6 0 -3 220.38 7.1
-6 0 3 230.68 7
6 0 -3 234.78 7.5
6 0 -3 233.78 7.2
6 0 3 214.58 6.3
-6 0 3 239.38 8
-6 0 3 223.28 8.3
-6 0 -3 217.38 7.6
6 0 -3 244.98 7.5
6 0 3 228.58 7.6
6 0 3 225.18 8.5
-6 0 -3 220.48 8
-6 0 3 237.38 7.3
-7 0 3 0.3 1.2
7 0 3 1 1.8
7 0 -3 -0.9 0.9
-7 0 3 1 1.3
7 0 3 1.8 1.5
7 0 -3 2.5 1.2
-7 0 -3 2.2 1.7
7 0 -3 -0.5 0.9
7 0 -3 0.1 1.1
-7 0 3 0.8 1.3
-7 0 -3 2.1 1.4
-8 0 -3 316.87 10.6
8 0 -3 311.77 9.7
-8 0 -3 316.17 11
8 0 3 310.67 10.4
8 0 -3 337.07 10.3
8 0 3 313.77 11.9
8 0 -3 302.67 9.6
-8 0 3 303.97 10.3
-8 0 3 295.67 9.6
9 0 3 -0.9 1.5
-9 0 -3 -1.3 1.7
9 0 -3 -0.5 1.3
-9 0 -3 0.4 1.5
9 0 3 0.1 2.4
-9 0 3 0.9 1.6
0 -1 3 -0.9 0.6
0 1 -3 -1.8 0.5
0 -1 -3 -0.6 0.6
0 1 -3 -1 0.5
0 1 3 -1 0.6
0 -1 -3 -0.7 0.5
0 -1 -3 -1.7 0.5
0 1 3 -1.4 0.5
0 -1 3 -0.3 0.6
0 1 3 -1.8 0.5
0 -1 3 -0.8 0.7
1 -1 3 9.9 0.9
1 -1 3 11.7 1.4
-1 1 3 10.8 1.3
1 1 -3 12.8 1.1
1 1 -3 10.5 1.1
1 1 -3 12.7 0.8
1 -1 3 14.4 1.4
-1 -1 -3 11.2 1.2
-1 -1 -3 10.5 1.2
-1 1 3 16.5 1.4
1 1 3 11.7 1.1
-1 1 -3 11.5 1.1
-1 -1 3 11.5 1
1 -1 -3 12.1 1.1
-1 1 -3 12.3 0.7
-1 -1 3 12.2 1.4
1 1 3 12 1.3
-1 1 -3 11.4 1.1
-1 -1 3 10.8 1.4
1 -1 -3 10.8 1.1
2 1 -3 2878.81 49.2
-2 1 3 2907.91 49.2
-2 -1 -3 2980.5 50.19
-2 -1 -3 2977 49.9
2 -1 3 2897.21 49.7
2 1 -3 2904.41 49.7
2 -1 3 2936.31 50.39
-2 1 3 2972.9 50.19
2 1 -3 2966.1 48.3
-2 1 3 2958 50.39
2 -1 3 2874.31 48.4
-2 -1 -3 2933.81 48.8
2 -1 -3 2929.41 49.3
-2 1 -3 2951.5 49.4
2 1 3 2889.11 49.2
-2 1 -3 2928.21 49.8
2 -1 -3 2923.11 49.6
-2 1 -3 2906.91 48.1
-2 -1 3 2959.9 49.99
-2 -1 3 2884.11 48.7
-2 -1 3 2893.81 50.19
2 1 3 2897.21 49.8
-3 -1 -3 9.7 1.6
-3 1 3 13 1.7
3 -1 3 9.3 1.5
3 -1 3 7 0.8
-3 1 3 8.8 1.5
-3 1 3 9.2 1.2
-3 -1 -3 7.6 1
-3 -1 -3 7.1 1.3
3 1 -3 5.4 1
3 1 -3 7.3 1.3
3 1 -3 7.9 0.8
3 -1 3 7.3 1.5
3 -1 -3 9.7 1.4
-3 1 -3 7.9 1.4
3 -1 -3 8.5 1.1
3 -1 -3 6 1
3 1 3 10.8 1.5
-3 1 -3 7.7 1.4
-3 1 -3 7.4 0.8
-3 -1 3 6.4 1.3
-3 -1 3 10.7 1.7
-3 -1 3 8.7 1.2
-3 1 -3 8.8 1.2
3 1 3 9.1 1
4 -1 3 26.1 1.5
-4 -1 -3 29 1.8
4 -1 3 27.9 2.2
4 1 -3 32.4 2.3
-4 -1 -3 25.8 2.1
-4 1 3 22.8 2.2
4 -1 3 23.4 2.6
4 1 -3 28.8 1.7
-4 1 3 25.5 2.4
-4 1 3 27.2 1.7
-4 -1 -3 28.6 2.5
4 1 -3 26.8 1.9
-4 -1 3 26 2.1
4 1 3 23.7 2.1
-4 1 -3 25.5 1.9
-4 1 -3 23.9 2.1
4 -1 -3 26.4 1.9
4 1 3 23.4 1.7
-4 -1 3 23.4 1.9
4 -1 -3 29.2 2
4 -1 -3 24.1 2.2
-4 1 -3 20.8 2.2
4 -1 -3 24.8 2
-4 -1 3 24.3 2.3
-4 1 -3 29.7 1.6
5 -1 3 232.78 8.1
-5 1 3 228.58 7.4
5 1 -3 231.68 6.5
-5 -1 -3 238.68 7.3
5 1 -3 234.18 6.2
-5 -1 -3 228.38 6.1
-5 1 3 230.38 7.8
-5 -1 -3 219.88 7.6
5 1 -3 221.08 6.8
5 -1 3 234.08 7.1
-5 1 3 230.78 6.3
5 1 -3 237.28 7.1
5 -1 3 224.38 5.8
-5 1 -3 227.58 7.5
5 1 3 234.38 6.4
5 -1 -3 232.68 6.8
-5 1 -3 235.58 7.4
5 -1 -3 240.48 6.8
5 1 3 229.98 7.2
-5 -1 3 225.78 6.9
5 -1 -3 234.68 7
-5 -1 3 244.08 7.8
5 -1 -3 229.08 7.2
5 1 3 233.18 8.1
-5 -1 3 223.68 6.7
-5 1 -3 243.58 6
-5 1 -3 234.18 6.7
6 1 -3 11.5 1.8
-6 1 3 9.8 2.1
-6 -1 -3 4.3 1.4
6 -1 3 10.5 2.4
-6 -1 -3 8.2 2
6 1 -3 7.4 1.6
-6 1 3 9.3 2.1
-6 -1 -3 10.7 1.6
-6 1 3 10.4 1.8
6 1 -3 10.2 1.8
6 -1 3 12.9 2.2
-6 -1 3 9.6 1.9
-6 1 -3 8.3 1.9
-6 1 -3 8.9 1.7
6 1 3 12.7 2.6
-6 -1 3 11.3 2
6 -1 -3 7.9 1.8
-6 1 -3 12.9 2.2
-6 -1 3 9.8 2.2
6 -1 -3 12.5 1.9
6 -1 -3 9.8 1.9
6 1 3 8.2 1.5
6 1 3 15.2 2.3
6 -1 -3 10.9 2
7 1 -3 320.27 9.4
7 1 -3 329.37 9.6
-7 -1 -3 320.57 10
7 1 -3 324.47 9.6
-7 -1 -3 308.67 10.5
-7 1 3 346.57 11.1
7 1 -3 317.67 9
-7 1 3 323.97 10.2
7 -1 3 319.57 11.2
7 -1 3 306.07 9.7
7 -1 -3 308.77 9
-7 1 -3 325.67 10.3
7 -1 -3 313.87 9.4
7 1 3 298.97 10.2
-7 -1 3 319.47 10.3
7 1 3 321.27 11.2
7 -1 -3 322.87 9.3
7 1 3 323.97 10.1
-7 -1 3 334.67 9.8
7 -1 -3 332.17 9.9
7 -1 -3 339.57 9.8
-7 1 -3 317.17 9.1
-8 -1 -3 40.2 3.7
-8 1 3 33.7 4
8 1 -3 42 3.5
8 -1 3 38.5 4.8
-8 1 3 39.8 3.7
-8 -1 -3 37.8 4.1
8 1 -3 32.9 3.3
8 1 -3 39.8 3.4
8 -1 3 33.6 3.6
8 1 3 38.3 3.9
-8 1 -3 39.9 4.6
8 -1 -3 37 3.4
-8 1 -3 40 3.7
8 1 3 28.3 4.5
-8 -1 3 35.5 3.5
8 -1 -3 45.7 3.5
8 -1 -3 38.7 3.6
-8 -1 3 32.2 3.6
-9 -1 -3 42.5 4.6
9 -1 3 42.4 4.5
9 -1 3 36.8 5.2
-9 -1 -3 44.1 4.1
9 -1 3 41.4 4.3
-9 1 3 39 4.4
9 1 -3 35 3.6
-9 -1 3 36 3.8
9 1 3 40.2 5.3
9 1 3 40.4 4.4
-9 1 -3 39.8 4
9 -1 -3 39 4
0 2 -3 -0.2 0.4
0 -2 3 0.1 0.6
0 2 3 -0.4 0.5
0 -2 3 1 0.8
0 2 -3 0.9 0.5
0 2 -3 0.9 0.6
0 -2 -3 1.6 0.7
0 -2 -3 1.2 0.7
0 2 3 -0.1 0.5
0 -2 -3 1.1 0.6
1 -2 3 262.37 5.2
1 -2 3 263.37 6.3
-1 2 3 271.57 6.3
1 2 -3 251.67 5.7
-1 -2 -3 255.67 6.2
1 -2 3 266.47 6.4
-1 -2 -3 272.57 6.3
-1 2 3 254.67 6.3
1 2 -3 259.27 6
-1 2 3 270.57 5.5
-1 -2 -3 275.47 5.5
1 2 3 270.07 6.1
-1 -2 3 272.37 6
1 -2 -3 276.47 5.2
1 -2 -3 266.77 6.1
-1 -2 3 271.47 6.4
1 2 3 263.27 5.2
-1 2 -3 271.97 6.1
1 -2 -3 266.57 6.2
-1 -2 3 275.57 6.6
1 2 3 258.27 6.1
-1 2 -3 262.67 5.5
-1 2 -3 256.77 5.9
-2 2 3 353.86 7
2 -2 3 351.56 8.5
2 -2 3 345.77 7.9
-2 2 3 341.77 8.3
-2 -2 -3 331.77 8.2
-2 2 3 342.27 8.1
-2 -2 -3 353.46 6.8
2 2 -3 337.37 7.3
-2 -2 -3 354.86 8.1
2 2 -3 343.87 7.8
2 -2 -3 341.87 7.9
2 2 3 350.66 7.7
-2 2 -3 358.96 7.8
2 -2 -3 358.56 7.9
2 -2 -3 347.87 6.7
-2 2 -3 344.87 7.9
-2 -2 3 358.76 8.5
2 2 3 343.97 7.9
-2 2 -3 347.17 6.9
-2 -2 3 358.06 8.3
-2 -2 3 352.36 7.5
3 -2 3 162.08 5.6
-3 -2 -3 164.18 4
-3 2 3 169.08 5.3
-3 2 3 166.08 5.6
3 2 -3 170.48 3.7
-3 2 3 162.68 4.2
3 -2 3 170.88 5.1
3 2 -3 167.58 5
3 2 -3 165.68 4.5
-3 -2 -3 167.28 5.2
-3 -2 -3 165.88 5.6
3 2 3 157.28 4.7
3 -2 -3 158.78 4.9
3 -2 -3 166.78 5.1
-3 2 -3 170.18 4.1
-3 2 -3 177.68 5.3
-3 2 -3 161.18 4.9
-3 -2 3 168.38 4.8
3 -2 -3 164.98 4.3
-3 -2 3 168.58 5.6
3 2 3 164.28 5.1
-3 -2 3 172.48 5.3
4 2 -3 87.49 3.2
-4 2 3 88.49 4
-4 -2 -3 87.19 2.9
4 2 -3 81.79 3.6
4 2 -3 91.09 3.8
-4 -2 -3 93.59 3.9
-4 2 3 97.69 3.3
-4 2 3 91.99 4
4 -2 3 87.89 4.4
4 -2 3 86.39 2.6
-4 -2 -3 94.79 4.5
4 2 -3 86.69 2.8
-4 2 3 92.09 4.3
4 -2 3 95.09 3.9
-4 2 -3 89.99 3.7
-4 -2 3 87.49 4.3
-4 -2 3 95.89 4
4 2 3 90.49 3.5
4 -2 -3 99.89 4.1
-4 2 -3 89.79 3.1
4 2 3 98.49 4.1
-4 -2 3 92.99 3.8
4 -2 -3 94.39 3.5
4 -2 -3 95.19 3.8
-4 2 -3 83.19 3.9
5 2 -3 132.89 5
-5 2 3 127.89 5.2
-5 2 3 138.09 4.4
5 2 -3 138.09 5.1
5 2 -3 153.28 5.2
-5 -2 -3 132.49 4
-5 2 3 129.49 5.3
-5 -2 -3 130.19 5.8
5 2 -3 133.09 4.4
-5 2 3 129.09 5.6
5 -2 3 135.59 5.1
5 -2 3 130.99 5.9
-5 -2 -3 130.69 5.2
-5 -2 3 131.09 5.2
5 -2 -3 132.59 4.8
5 -2 -3 124.59 4.9
5 2 3 127.39 5.2
-5 -2 3 126.69 5.5
5 -2 -3 124.59 5
-5 2 -3 117.29 4.7
5 2 3 129.19 4.7
-5 2 -3 121.59 5.2
-5 2 -3 132.09 4.3
-6 2 3 22.1 2.8
-6 2 3 24.5 2.6
-6 -2 -3 22.4 2.9
-6 -2 -3 19.6 2.4
6 2 -3 20.9 2.3
6 -2 3 19.1 2.5
6 2 -3 22.3 2
6 -2 3 12.5 2.6
6 2 -3 19.3 2.2
-6 2 3 20.6 2.1
6 -2 -3 18.8 2.4
-6 2 -3 21.2 2.5
6 2 3 23 2.2
-6 -2 3 21.5 2.5
6 -2 -3 23.3 2.4
-6 2 -3 21.1 2.3
6 -2 -3 23.2 2.4
6 -2 -3 27.8 2.8
-6 -2 3 18.8 2.6
6 2 3 16.3 2.4
-7 -2 -3 60.89 4.6
-7 2 3 70.49 4.9
7 2 -3 68.59 4
7 -2 3 59.69 4.2
-7 2 3 58.69 4.1
7 2 -3 65.89 4
7 -2 3 65.79 5.3
-7 -2 -3 62.19 4.1
-7 2 -3 65.69 4.4
7 -2 -3 61.79 4.1
-7 2 -3 64.59 3.9
7 -2 -3 60.79 3.7
-7 -2 3 59.49 4.2
7 2 3 47 4.6
7 -2 -3 59.49 4.2
7 2 3 59.39 3.6
7 -2 -3 56.09 3.8
7 2 3 63.29 4.3
-7 -2 3 65.79 4.6
-8 -2 -3 5 2.3
-8 2 3 4.6 2.2
8 -2 3 2.9 2.3
-8 2 3 6.8 2
-8 -2 -3 2.1 1.5
8 2 -3 5 1.8
8 2 -3 9.8 2.1
8 -2 3 8.9 2.7
8 2 -3 6.6 1.9
8 -2 3 7.3 2.3
8 2 3 6 2.6
-8 2 -3 7.9 2
8 -2 -3 6.5 1.9
-8 2 -3 8.4 2.1
-8 -2 3 8.3 2.3
8 2 3 9.3 2.5
8 -2 -3 7.1 2.1
9 -2 3 11 3.4
-9 -2 -3 4.2 2.4
9 -2 3 6.2 2.5
9 2 -3 4.2 1.8
-9 2 3 6.9 2.7
-9 -2 -3 2.5 1.8
9 2 -3 1.5 1.5
-9 -2 3 2.3 2
9 -2 -3 5.3 2.1
9 -2 -3 4.4 2.1
9 2 3 7.5 3.1
9 2 3 5.3 2.4
-9 2 -3 4.4 2
0 -3 3 -0.2 0.6
0 3 -3 0 0.4
0 -3 -3 2.3 0.9
0 -3 3 1.5 0.7
0 -3 3 -0.2 0.8
0 -3 -3 1.5 0.7
0 3 -3 0.1 0.5
0 3 3 -0.1 0.6
0 3 3 0.4 0.5
0 3 -3 0.8 0.5
0 3 3 0.7 0.5
-1 -3 -3 377.86 8.5
1 3 -3 377.86 8.1
1 -3 3 368.96 8.6
-1 3 3 370.56 7.1
-1 -3 -3 367.26 7.2
-1 3 3 370.86 8.3
1 3 -3 367.66 7.7
-1 -3 -3 389.36 8.4
1 -3 3 375.56 8.3
-1 3 3 361.26 8.2
1 -3 3 373.46 6.9
1 3 3 372.46 7.4
1 3 3 368.26 8
-1 3 -3 388.36 8.1
1 -3 -3 369.86 7.5
-1 -3 3 367.86 8.3
1 3 3 355.96 8.1
1 -3 -3 374.36 8.1
1 -3 -3 382.06 8.4
-1 -3 3 374.86 8.7
-1 3 -3 380.16 8
-2 -3 -3 123.09 4.2
2 -3 3 121.69 4.5
2 3 -3 121.09 3.9
-2 3 3 122.29 4.3
-2 3 3 117.09 2.9
2 3 -3 118.49 3.4
2 -3 3 124.19 4
2 3 -3 129.39 4
-2 -3 -3 116.69 4.4
-2 -3 -3 113.99 2.8
-2 3 3 115.89 4
-2 3 -3 122.19 4
2 3 3 128.29 4.1
-2 -3 3 120.39 4.4
-2 3 -3 119.09 4
2 -3 -3 121.39 4.1
2 -3 -3 123.29 4.1
-2 -3 3 118.49 4.3
2 -3 -3 115.59 3.3
2 3 3 121.79 4
2 3 3 121.79 3
-2 3 -3 121.49 3.5
-3 3 3 35.5 2.5
3 3 -3 39.9 2.3
3 3 -3 39.7 1.9
3 3 -3 34.4 2.2
-3 -3 -3 39 1.5
3 -3 3 35.2 2.3
-3 3 3 38.7 1.6
-3 3 3 37.8 2.6
-3 -3 -3 38.4 2.4
-3 3 3 39.7 2.5
3 -3 3 38.9 2.9
-3 -3 -3 31.3 2.7
-3 3 -3 34.9 1.8
-3 -3 3 41.2 2.7
-3 -3 3 36.8 2.7
3 3 3 40.5 2.3
-3 3 -3 37.8 2.4
3 3 3 42.6 2.5
3 -3 -3 33.4 2.4
3 3 3 39.9 1.5
-3 3 -3 40.2 2.4
3 -3 -3 40.5 2.5
3 -3 -3 39.5 2
4 3 -3 512.05 11.7
4 3 -3 520.65 10.6
4 -3 3 513.15 12.8
-4 -3 -3 512.75 11.8
-4 -3 -3 499.65 12.6
-4 3 3 526.85 12
-4 3 3 519.45 10.2
-4 -3 -3 486.75 9.7
4 3 -3 514.75 11.6
-4 3 3 508.45 12.5
4 3 -3 542.85 10.1
4 -3 3 532.25 11.6
-4 3 3 525.45 12.3
-4 -3 3 505.95 12
-4 3 -3 518.05 11.8
-4 -3 3 498.55 12.4
4 -3 -3 517.55 11.9
4 3 3 505.95 11.8
-4 3 -3 512.65 12.1
4 3 3 495.25 9.7
4 -3 -3 491.65 11.8
-4 3 -3 514.15 10.6
4 3 3 480.15 11.4
4 -3 -3 511.85 11
-5 -3 -3 25.7 2.4
5 -3 3 20.1 2.9
5 3 -3 24.5 2.3
-5 3 3 21 2.3
-5 3 3 27.1 2.7
5 -3 3 23.4 2.3
5 3 -3 25.3 1.8
-5 3 3 25.7 1.8
-5 -3 -3 18 2.6
5 3 -3 23.4 2.2
-5 3 3 24 2.5
5 -3 -3 27.7 2.4
-5 3 -3 24.9 2
5 3 3 21.5 2.1
5 -3 -3 21.6 2.3
5 3 3 26.6 2.5
-5 -3 3 25.7 2.5
-5 3 -3 24.9 2.3
5 -3 -3 22.3 2.3
-5 3 -3 21.8 2.3
-5 -3 3 21.1 2.5
-6 3 3 5.2 1.8
6 -3 3 5.2 2.1
-6 -3 -3 2.7 1.3
-6 3 3 3.9 1.5
6 -3 3 2.9 1.6
6 3 -3 9.2 1.8
-6 -3 -3 2.4 1.6
6 3 -3 2.8 1.2
-6 3 3 8.4 1.8
6 -3 3 3.6 1.5
-6 -3 3 5 1.7
6 3 3 5 1.4
6 -3 -3 5.5 1.7
-6 3 -3 5.1 1.5
-6 3 -3 6.8 1.7
6 -3 -3 7.8 2
-6 -3 3 2.8 1.5
6 3 3 4.1 1.6
7 3 -3 40.9 3.4
-7 3 3 50.49 4
7 -3 3 44.9 4.1
7 -3 3 43.9 4.7
-7 -3 -3 39.2 4.1
-7 -3 -3 41.4 3.4
-7 3 3 43 4
-7 3 3 40.7 3.5
7 -3 3 41.5 3.6
7 3 -3 46.3 3.4
7 3 3 45.1 3.4
-7 3 -3 46.1 3.8
-7 -3 3 36.9 3.7
7 -3 -3 44.8 3.7
7 -3 -3 50.79 3.8
7 -3 -3 43.9 3.8
7 3 3 48.8 4
-7 3 -3 44.9 3.5
-7 -3 3 42.9 5.5
-7 -3 3 44.1 3.8
8 3 -3 73.59 4.7
8 3 -3 66.19 4.4
8 3 -3 71.89 4.8
-8 -3 -3 70.89 5.5
8 -3 3 68.69 6.1
-8 3 3 69.69 5.2
-8 -3 -3 73.89 4.8
8 -3 3 72.09 5.3
-8 -3 3 75.69 5
8 -3 -3 62.59 4.6
8 -3 -3 67.29 4.7
8 -3 -3 75.99 5
8 3 3 73.49 6
-8 3 -3 80.69 4.9
-8 3 -3 66.49 4.9
8 3 3 73.39 5.2
8 3 3 66.29 4.3
9 -3 3 10 3.1
-9 3 3 8.7 2.7
-9 -3 -3 9.7 3
9 -3 3 6.1 3.4
-9 -3 -3 7.7 2.2
9 3 -3 6.2 2.2
9 3 -3 9.4 2.2
-9 3 -3 6.7 2.4
9 3 3 11 2.8
-9 3 -3 10.1 2.6
9 -3 -3 7.9 2.3
-9 -3 3 13.3 3
9 3 3 9.3 3.4
9 -3 -3 7.9 2.5
0 -4 3 1.9 0.8
0 -4 3 0 0.8
0 4 3 0.2 0.5
0 -4 3 0.7 0.6
0 4 -3 1.3 0.5
0 4 -3 -0.3 0.5
0 4 -3 0.6 0.6
0 -4 3 2.2 1.1
0 4 3 0.2 0.6
0 4 3 1.2 0.8
0 -4 -3 0.4 0.8
0 -4 -3 1.3 0.9
0 4 -3 -0.3 0.5
1 4 -3 1445.06 26
1 4 -3 1432.76 25.3
1 4 -3 1452.15 25.5
-1 4 3 1449.35 26.1
1 -4 3 1441.36 26.8
-1 -4 -3 1471.55 26.4
-1 4 3 1437.06 26.2
1 -4 3 1445.56 26.1
-1 -4 -3 1440.86 26.5
-1 -4 -3 1454.35 24.7
-1 4 3 1440.36 24.3
1 -4 -3 1447.46 26.5
-1 -4 3 1460.15 26.1
1 4 3 1434.66 25.4
-1 -4 3 1452.35 26.5
-1 4 -3 1428.06 25.7
1 4 3 1442.06 26.2
-1 -4 3 1467.55 26.6
1 -4 -3 1452.75 25.6
-1 4 -3 1445.56 24.2
-1 -4 3 1477.65 24.3
1 -4 -3 1446.76 25.9
-1 4 -3 1425.26 25.9
-1 4 -3 1434.86 25.8
2 -4 3 152.28 4.8
-2 4 3 144.89 4.9
-2 -4 -3 147.99 5.2
2 4 -3 140.19 3.8
-2 -4 -3 138.89 3.1
2 4 -3 148.09 4.5
-2 4 3 146.29 4.9
-2 4 3 140.19 4.6
2 4 -3 144.39 4.6
2 -4 3 141.39 4.5
2 -4 3 143.49 5.2
-2 -4 -3 145.29 4.8
2 -4 -3 145.89 4.7
-2 -4 3 144.29 4.9
-2 -4 3 150.38 4.8
-2 -4 3 139.09 5
2 4 3 144.99 3.9
2 4 3 148.69 4.5
2 4 3 131.99 4.6
-2 4 -3 149.99 4.7
2 -4 -3 142.39 4.2
-2 4 -3 141.49 4.6
2 -4 -3 145.09 4.9
-3 -4 -3 69.99 3.4
3 -4 3 68.59 3.2
3 -4 3 66.39 3.8
-3 4 3 76.79 3.4
-3 4 3 69.39 3.6
-3 4 3 69.69 3.5
-3 -4 -3 72.99 4
3 4 -3 71.39 3.2
3 4 -3 74.59 2.6
3 4 -3 72.59 3.3
3 -4 3 71.89 3.6
-3 -4 3 66.59 3.4
-3 -4 3 72.89 3.7
-3 -4 3 76.79 3.8
3 -4 -3 73.29 3.6
3 4 3 76.39 3.3
3 4 3 71.19 3.3
-3 4 -3 71.79 3.4
-3 4 -3 74.59 3.5
3 4 3 67.79 2.5
3 -4 -3 72.39 3
3 -4 -3 75.39 3.6
-3 4 -3 80.09 3.9
-4 4 3 106.39 4.7
4 -4 3 114.59 5.3
-4 4 3 115.89 3.1
-4 4 3 118.89 4.7
4 4 -3 111.69 4.5
4 -4 3 113.29 4.9
4 4 -3 116.69 3.6
-4 4 3 113.29 5
4 4 -3 109.19 4.4
-4 -4 -3 123.59 4.8
4 -4 3 115.29 4.4
-4 -4 -3 114.69 5.3
-4 -4 3 111.59 4.8
-4 4 -3 118.99 4.9
-4 -4 3 109.49 5
-4 4 -3 117.29 4
4 -4 -3 119.79 4.9
-4 4 -3 109.69 4.5
4 4 3 112.49 4.6
4 -4 -3 117.99 4.9
4 4 3 117.49 3.4
4 4 3 123.59 4.6
-4 -4 3 116.09 4.9
4 -4 -3 112.39 4.2
-5 -4 -3 10.5 2.3
-5 4 3 9.4 2
5 -4 3 11.9 1.9
5 -4 3 10.2 2.1
5 4 -3 9.5 1.7
-5 -4 -3 6.6 1.6
5 -4 3 8.6 2.2
-5 4 3 6 1.7
5 4 -3 8.4 1.7
-5 4 -3 9.6 2
-5 4 -3 9.4 1.5
-5 -4 3 8.7 1.9
5 -4 -3 7.9 1.7
5 4 3 8.3 1.7
-5 4 -3 8 1.8
5 -4 -3 7.7 1.7
5 -4 -3 8.9 1.9
-5 -4 3 10.7 2
5 4 3 10.2 1.9
-5 -4 3 11.6 2.1
-6 4 3 72.39 4.7
-6 -4 -3 74.39 5
6 -4 3 70.09 4
6 -4 3 82.99 4.9
6 4 -3 69.49 3.9
-6 -4 -3 79.19 4.3
6 -4 3 78.29 5.2
6 4 -3 69.29 4.1
-6 4 3 74.59 4.6
-6 4 -3 69.29 4.1
6 4 3 71.69 4
-6 -4 3 64.89 4.3
-6 -4 3 71.99 4.4
6 4 3 73.89 4.4
6 -4 -3 76.29 4.5
-6 4 -3 74.79 4.5
6 -4 -3 73.39 4.4
7 -4 3 11.1 2.6
7 -4 3 8.9 2.8
-7 4 3 10.9 2.5
7 4 -3 12.2 2.3
-7 -4 -3 7.6 2.4
-7 4 3 5.1 1.9
7 4 -3 7.1 1.8
-7 -4 -3 5.2 1.7
7 -4 -3 6.3 1.9
-7 4 -3 8.8 2.1
-7 4 -3 6.7 2
-7 -4 3 6.7 2.1
7 -4 -3 9.2 2.2
-7 -4 3 6.2 2
7 4 3 8.5 2
7 4 3 8.9 2.3
8 4 -3 26.1 3.4
-8 -4 -3 23.6 3
8 -4 3 21.3 3.6
8 4 -3 19.1 2.6
-8 4 3 22.8 3.5
8 -4 3 17.3 3.7
-8 4 3 19.6 3.2
8 4 -3 18.4 3
-8 -4 -3 17.5 3.3
-8 4 -3 19.4 3.2
8 -4 -3 22 3.3
-8 -4 3 18.1 3.2
8 4 3 17.5 3.2
-8 4 -3 17.4 3
8 -4 -3 18.2 3.1
8 4 3 21.6 2.9
-8 -4 3 20.4 3.3
8 -4 -3 24.9 3.4
0 5 -3 0.2 0.5
0 -5 3 0.3 1.1
0 5 3 4 1.3
0 -5 3 -0.6 0.6
0 -5 -3 -1 0.8
0 -5 -3 -0.5 0.6
0 5 -3 -1.8 0.6
0 5 3 -1.2 0.4
0 5 3 0.1 0.6
0 -5 -3 0.9 0.9
0 5 -3 0.6 0.6
0 -5 3 -0.7 0.9
-1 5 3 396.06 9
-1 -5 -3 380.76 7.7
-1 5 3 384.96 9.1
-1 5 3 388.36 9
-1 -5 -3 384.56 9.3
1 5 -3 397.56 8.3
1 -5 3 394.06 9
-1 -5 -3 393.66 9.6
1 -5 3 384.86 9.8
1 5 -3 394.86 9.3
1 5 -3 379.96 8.9
1 5 3 388.26 8.6
1 5 3 392.56 9.2
-1 5 -3 395.06 9
-1 -5 3 393.76 9.6
-1 -5 3 383.16 9.4
-1 -5 3 400.76 7.5
-1 5 -3 380.76 8.7
1 -5 -3 398.46 9.5
1 -5 -3 385.26 8.8
1 -5 -3 385.86 8.9
-1 5 -3 383.16 7.3
-1 5 -3 393.86 8.9
-2 5 3 144.29 5.1
-2 -5 -3 156.58 5.2
-2 5 3 161.28 5.3
-2 5 3 160.78 5
2 5 -3 159.58 4.2
-2 -5 -3 150.18 5.6
2 5 -3 148.79 4.9
2 -5 3 148.49 5
2 -5 3 150.58 5.7
2 -5 3 157.78 4.9
2 5 -3 163.78 4.9
2 5 3 152.48 4.7
2 -5 -3 146.19 4.7
-2 5 -3 159.48 4.8
2 -5 -3 157.68 5.1
-2 -5 3 150.08 5.4
2 5 3 154.48 4.4
-2 -5 3 161.98 5.5
-2 5 -3 152.98 5.1
2 -5 -3 148.59 5.3
-2 5 -3 187.28 5.4
2 5 3 151.08 5.1
3 5 -3 382.26 9.5
-3 -5 -3 413.26 9.9
3 -5 3 410.86 10.2
3 -5 3 402.56 9.3
-3 5 3 416.36 9.7
3 -5 3 384.96 10.6
3 5 -3 388.06 9.5
-3 5 3 412.76 10.4
3 5 -3 394.26 8.2
-3 -5 -3 390.36 10.7
-3 5 3 393.76 10.1
3 5 3 384.26 9.7
3 -5 -3 394.36 10
-3 5 -3 395.16 10.1
-3 -5 3 378.56 10.1
-3 -5 3 401.96 10.2
3 5 3 410.26 9.7
-3 5 -3 386.26 9.8
3 -5 -3 410.66 10.4
-3 5 -3 387.26 10.2
3 5 3 405.86 8.7
3 -5 -3 397.86 9.3
-4 -5 -3 107.99 4.6
4 5 -3 116.09 4.7
4 -5 3 107.09 4.3
-4 5 3 116.59 5
4 -5 3 111.89 5.1
-4 -5 -3 116.79 5.6
4 5 -3 113.89 4.3
4 5 -3 106.69 4.4
4 -5 3 109.09 5.4
-4 5 3 106.39 5
4 5 3 105.69 4.6
4 -5 -3 113.99 4.5
4 5 3 109.89 4.6
4 -5 -3 122.29 5
4 5 3 114.79 3.7
-4 -5 3 119.49 5.1
-4 5 -3 120.69 5.1
-4 -5 3 100.99 4.8
-4 5 -3 111.49 4.7
4 -5 -3 111.49 5
-5 5 3 31.9 3.1
5 -5 3 31.1 3.5
-5 -5 -3 32.2 2.8
5 5 -3 28.2 2.5
5 -5 3 31.4 2.7
5 -5 3 29 3.1
-5 -5 -3 33.8 3.5
5 5 -3 33.4 2.8
-5 5 3 31 3
5 5 3 30 2.7
5 -5 -3 32.5 3
5 -5 -3 34.2 3.1
-5 5 -3 35.2 2.5
5 -5 -3 33.1 3
-5 -5 3 31.7 3.1
-5 5 -3 35.4 3.1
-5 -5 3 30.2 3.2
5 5 3 31.9 2.8
-5 5 -3 30.1 2.7
-6 5 3 83.79 5
-6 -5 -3 86.99 4.6
-6 5 3 84.39 5.1
6 -5 3 85.79 5.2
6 5 -3 93.19 4.8
6 -5 3 83.39 5.7
-6 -5 -3 84.49 5.5
-6 5 3 86.19 5
6 5 -3 87.79 4.4
-6 -5 3 85.59 5.1
6 5 3 85.29 4.6
-6 5 -3 87.59 4.7
-6 5 -3 82.09 5
6 -5 -3 85.59 5
-6 -5 3 86.69 5.1
6 -5 -3 82.79 5
-6 5 -3 89.39 4.8
6 5 3 81.69 4.7
-7 -5 -3 54.19 4
-7 5 3 57.69 4.6
7 5 -3 61.09 4
-7 5 3 59.39 4.7
-7 -5 -3 60.49 5.1
7 -5 3 55.69 4.6
7 -5 3 56.49 5.2
7 5 -3 65.09 4.4
7 5 3 63.99 4.3
-7 -5 3 59.89 4.6
-7 5 -3 61.59 4.3
-7 -5 3 57.29 4.7
7 5 3 50.99 4.3
-7 5 -3 52.99 4.4
7 -5 -3 57.59 4.5
7 -5 -3 60.39 4.5
-8 5 3 2.2 1.6
8 -5 3 2.3 2.2
8 -5 3 2 2.8
-8 5 3 3.6 2
8 5 -3 2.1 1.8
8 5 -3 1.5 1.4
8 5 -3 4.4 1.7
-8 -5 -3 5.3 2.6
-8 5 -3 3.4 2
-8 5 -3 5.3 2.1
8 -5 -3 4.4 2.1
8 5 3 4.3 2.2
-8 -5 3 4.2 2.1
8 -5 -3 1.5 1.8
8 5 3 4.5 2
-8 -5 3 5.4 2.3
0 -6 3 -0.5 0.6
0 -6 -3 0.9 0.7
0 -6 -3 1.8 1
0 6 -3 0 0.7
0 -6 3 1.3 1.1
0 6 3 1.5 1.1
0 6 -3 0.3 0.5
0 6 3 0.5 0.5
0 -6 3 0.8 1.1
0 -6 -3 1.2 1
0 6 3 0.4 0.7
0 6 -3 -0.3 0.5
-1 6 3 8.5 1.5
1 6 -3 8.5 1.3
-1 6 3 9.6 1.5
1 -6 3 8 1.8
-1 -6 -3 10.6 1.7
1 6 -3 8.5 1.2
1 -6 3 10 1.6
-1 6 3 9 1.5
-1 -6 -3 6.8 1
-1 -6 -3 7.5 1.6
1 -6 -3 8 1.4
-1 6 -3 7.2 0.8
-1 -6 3 7.5 1.7
1 6 3 7.5 1.3
1 6 3 5.2 1.3
-1 -6 3 8.5 1
1 6 3 8.1 1.2
1 -6 -3 5.5 1.5
-1 6 -3 9.7 1.5
-1 6 -3 10.7 1.5
1 -6 -3 8.9 1.6
-1 -6 3 7.7 1.7
2 -6 3 235.88 6.4
-2 6 3 216.58 6.7
-2 -6 -3 233.58 6.8
2 -6 3 242.28 6.9
2 6 -3 231.78 6.4
-2 6 3 230.68 7
2 6 -3 222.68 6.6
2 -6 3 220.28 7.5
-2 -6 -3 227.98 7.5
-2 6 3 250.27 6.7
2 6 -3 229.48 5.6
2 6 3 218.68 6.7
-2 6 -3 228.28 6.5
-2 -6 3 230.78 7.3
2 6 3 230.18 6.3
-2 6 -3 226.38 6.6
2 6 3 230.18 6.1
-2 -6 3 217.28 7
2 -6 -3 237.98 7.2
2 -6 -3 223.58 6.7
2 -6 -3 232.58 6.6
-3 -6 -3 168.48 5.8
-3 -6 -3 166.48 5.7
3 6 -3 169.18 4.4
-3 6 3 164.48 6
-3 -6 -3 160.68 6.5
-3 6 3 160.98 5.9
3 6 -3 153.88 5.5
3 -6 3 169.38 6.6
3 -6 3 154.18 5.9
3 6 -3 158.78 5.4
3 -6 3 170.28 5.3
3 -6 -3 161.28 6.1
3 6 3 176.78 5.9
-3 -6 3 162.78 6
-3 -6 3 159.48 6.1
3 -6 -3 173.58 6
3 6 3 160.98 4.9
-3 6 -3 172.28 6
3 6 3 170.38 5.6
-3 6 -3 169.08 5.4
3 -6 -3 170.58 5.6
-3 6 -3 161.98 5.8
4 6 -3 43.4 2.9
4 -6 3 42.7 3.4
-4 -6 -3 47.6 3.3
-4 -6 -3 47.1 3.2
-4 6 3 50.89 3.5
4 6 -3 41.1 2.9
-4 6 3 50.89 3.5
4 -6 3 36.2 3.6
-4 -6 -3 43.9 3.8
4 -6 3 51.79 3.1
4 -6 -3 46.1 3.5
-4 6 -3 45.5 2.8
4 6 3 51.19 3.2
-4 -6 3 35.4 3.3
-4 6 -3 46.6 3.3
-4 6 -3 51.49 3.3
-4 -6 3 41.4 3.3
4 6 3 49.8 3.2
4 -6 -3 45.9 3.3
4 -6 -3 50.79 3.4
4 6 3 47.1 2.6
-5 6 3 8.5 2
-5 -6 -3 6.1 2.2
-5 6 3 9 1.8
-5 6 3 7.8 2
5 -6 3 7 2.5
5 6 -3 9.2 1.7
5 -6 3 7 2.2
5 6 -3 10 1.9
-5 -6 -3 10 2
-5 -6 3 6.1 1.8
5 6 3 8.5 1.8
-5 6 -3 12.5 2.2
5 -6 -3 6.9 1.9
5 -6 -3 6.9 2
5 6 3 9 1.9
-5 -6 3 6.8 2.1
-5 6 -3 12.5 2.4
-6 -6 -3 16.6 2.5
6 6 -3 22.1 2.5
6 -6 3 19 3.2
-6 6 3 18.4 2.9
6 -6 3 18.3 3.4
6 6 -3 22 2.7
-6 -6 -3 15.7 3.1
-6 6 3 15.6 2.8
6 -6 -3 21 3
-6 6 -3 20.3 2.7
-6 -6 3 21.4 3.2
-6 -6 3 13.9 2.8
6 6 3 20.2 2.8
-6 6 -3 24.2 3.1
6 -6 -3 19.2 3
6 6 3 24.6 2.9
-6 6 -3 22.6 2.9
7 6 -3 0 1
-7 -6 -3 -0.3 1.8
7 -6 3 -2.3 2.2
7 -6 3 -1.6 1.6
-7 -6 -3 -1.6 1.1
7 6 -3 -1.4 1
-7 6 3 0.6 1.5
-7 6 3 0.5 1.4
-7 -6 3 1.6 1.8
7 -6 -3 -2 1.5
-7 6 -3 -0.3 1.2
-7 6 -3 -0.6 1.1
7 6 3 1.6 1.6
7 6 3 -0.2 1.3
7 -6 -3 -0.5 1.5
-7 -6 3 -1 1.5
8 6 -3 13.7 2.9
8 -6 3 17.3 4
8 -6 3 13.5 3.4
8 6 -3 11.7 2.3
8 6 -3 12.4 2.7
-8 -6 -3 7 2.7
-8 6 3 6.2 2.6
-8 6 3 16.6 3.3
8 6 3 13 2.9
-8 6 -3 10.1 2.8
8 -6 -3 15.9 3.2
8 -6 -3 13.9 3.2
-8 -6 3 9.6 2.7
-8 6 -3 10.3 2.7
-8 -6 3 8.2 2.7
8 6 3 9.1 2.4
0 7 -3 -0.1 0.6
0 7 -3 0.1 0.6
0 -7 -3 -0.8 0.7
0 7 3 0.5 0.6
0 -7 -3 1.5 1.2
0 7 3 -0.1 0.7
0 -7 -3 -0.3 0.9
0 -7 3 -0.5 0.7
0 7 -3 -0.5 0.7
0 -7 3 1.2 1.3
0 7 3 0.5 0.9
0 -7 3 0.1 1.2
1 -7 3 93.59 4
1 -7 3 89.99 4.7
-1 -7 -3 89.89 4.2
-1 -7 -3 94.09 3.1
-1 7 3 94.09 4
1 7 -3 87.79 4
-1 7 3 90.79 3.9
1 7 -3 91.69 3.4
-1 -7 -3 92.79 4.6
-1 7 3 97.99 4.2
1 7 3 94.99 3.9
1 -7 -3 90.69 4.9
1 7 3 99.59 3.5
-1 7 -3 92.79 4
1 7 3 98.29 4.2
-1 -7 3 98.79 3.2
1 -7 -3 100.09 4.5
1 -7 -3 98.99 4.4
-1 -7 3 87.99 4.3
-1 -7 3 91.59 4.7
-1 7 -3 94.09 2.9
-1 7 -3 99.49 4
2 7 -3 231.58 6.6
2 -7 3 222.98 8
2 -7 3 233.48 7.1
-2 -7 -3 243.08 6.8
-2 7 3 247.88 7.5
2 -7 3 239.38 6.7
-2 7 3 235.48 7.2
-2 -7 -3 234.48 7.2
2 7 -3 231.48 7.1
-2 7 3 234.88 6.8
-2 -7 -3 228.08 7.9
2 7 -3 238.38 5.8
2 -7 -3 228.08 7.6
2 7 3 231.78 6.6
-2 7 -3 236.88 7.1
2 -7 -3 224.38 7.1
-2 -7 3 250.17 7.5
2 7 3 230.98 7.2
2 7 3 237.68 6.8
-2 7 -3 231.58 6.9
-2 -7 3 233.18 7.8
2 -7 -3 228.68 7
3 7 -3 50.79 3.1
3 -7 3 45.5 3.9
-3 -7 -3 47.1 3.2
3 -7 3 47.5 3.4
3 7 -3 50.59 3
-3 7 3 45.6 3.2
-3 -7 -3 59.39 4.3
3 -7 3 53.89 3.1
-3 -7 -3 46 3.2
-3 7 3 49.6 3.4
3 7 3 49.1 3.2
-3 7 -3 56.09 3.3
3 -7 -3 45.3 3.3
-3 7 -3 50.49 3
3 -7 -3 47.6 3.4
-3 -7 3 45.6 3.5
3 7 3 52.19 3.1
-3 -7 3 52.69 3.6
3 -7 -3 47.6 3.5
3 7 3 53.89 2.8
-4 -7 -3 24.2 2.9
4 -7 3 32.4 3.2
-4 7 3 29.7 2.6
4 7 -3 31.8 2.7
-4 -7 -3 27.8 3.5
-4 -7 -3 33.3 2.9
4 7 -3 33 2.7
4 -7 3 30.4 3.5
-4 7 3 29 2.9
-4 7 3 25.4 2.8
-4 7 -3 28.1 2.5
-4 -7 3 31.9 3.3
4 7 3 25.8 2.6
4 -7 -3 27.8 3
-4 7 -3 19.9 2.5
4 7 3 29.4 2.7
4 -7 -3 29.7 3.1
4 -7 -3 26.1 3
-4 -7 3 23.3 3
-5 -7 -3 8.3 2.4
5 -7 3 6.4 2.3
-5 7 3 6.2 1.9
-5 7 3 6.5 1.7
5 -7 3 8.8 2.5
-5 7 3 6.4 2
-5 -7 -3 3.5 1.6
5 7 -3 5.3 1.6
5 7 -3 8.9 1.9
-5 7 -3 7.9 1.7
5 -7 -3 3.9 1.7
-5 -7 3 4.6 1.8
5 7 3 9 2
5 -7 -3 5.9 2
-5 7 -3 10.4 2.1
5 7 3 6.3 1.8
-5 -7 3 9.8 2.5
-6 -7 -3 67.79 4.3
-6 7 3 67.69 4.8
-6 7 3 58.29 4.6
6 -7 3 63.99 4.9
6 -7 3 70.89 5.7
6 7 -3 65.99 4.4
-6 -7 -3 69.99 5.4
6 7 -3 69.59 4.2
6 -7 -3 64.89 4.7
6 7 3 65.89 4.4
-6 -7 3 57.59 4.8
6 -7 -3 63.39 4.9
-6 -7 3 67.39 4.9
-6 7 -3 57.79 4.3
6 7 3 62.69 4.4
7 7 -3 37 3.7
-7 -7 -3 37 4.7
7 -7 3 33.9 5.1
-7 7 3 35.9 4.1
7 7 -3 32.8 3.3
-7 7 3 36.5 4
7 -7 3 32.1 4.1
7 7 3 32.2 3.6
7 7 3 33.6 3.9
-7 -7 3 27 4.1
7 -7 -3 30.6 3.9
7 -7 -3 30.2 3.9
-7 7 -3 37.5 3.8
-7 -7 3 27.1 4.1
8 -7 3 23.9 4.7
8 7 -3 20.1 4.8
8 -7 3 21.9 4.2
8 7 -3 16.1 3.1
8 7 -3 25.1 3.7
-8 -7 -3 15.7 3.5
-8 7 3 28 4.1
-8 7 3 35.2 4.4
-8 -7 3 19.7 3.8
8 -7 -3 14.3 3.5
8 7 3 19.7 3.4
8 -7 -3 26.8 4.1
-8 7 -3 20.6 3.7
-8 -7 3 19.5 3.6
8 7 3 15.2 3.2
0 8 3 0.3 0.9
0 -8 3 -0.6 1.3
0 -8 -3 0.4 1.2
0 -8 3 -0.2 0.9
0 -8 3 1.6 1.4
0 8 3 1 0.9
0 8 -3 0.3 0.8
0 8 -3 -0.4 0.8
0 -8 -3 0.3 0.8
0 8 3 -0.3 0.6
0 -8 -3 2.1 1.2
0 8 -3 -0.6 0.6
1 -8 3 6.3 2
-1 8 3 6.7 1.5
1 8 -3 8.7 1.4
-1 8 3 7.3 1.5
-1 -8 -3 8.4 2
1 -8 3 11.3 1.9
1 8 -3 10.5 1.8
-1 -8 -3 10.2 1.9
-1 8 3 9.9 1.7
1 -8 -3 8.9 2
1 8 3 8.1 1.7
-1 -8 3 8.1 1.9
1 8 3 8.2 1.3
-1 8 -3 10.2 1.7
-1 -8 3 8.4 2.1
-1 8 -3 11.8 1.6
1 -8 -3 7.5 1.9
-1 -8 3 8.6 1.5
1 8 3 11 1.7
-1 8 -3 10.8 1.6
2 -8 3 41.4 3.8
2 -8 3 36.6 2.9
-2 8 3 40 3
2 8 -3 32 2.6
-2 -8 -3 36.7 3.6
-2 -8 -3 36.4 3
-2 8 3 40.6 3.1
-2 8 3 42.8 2.9
2 8 -3 36.3 2.5
2 -8 3 39 3
-2 -8 -3 34.3 2.7
-2 8 -3 40.4 2.9
2 -8 -3 39.6 3.3
-2 8 -3 37.8 2.8
-2 -8 3 32.6 3.4
2 -8 -3 42.6 3.4
-2 -8 3 44.3 3.4
2 8 3 44.4 2.8
2 8 3 36.4 2.9
2 -8 -3 41.4 3.1
3 -8 3 36.7 3.3
3 8 -3 47.2 3.2
3 -8 3 42.5 4
-3 -8 -3 43.3 3.2
3 8 -3 52.79 3.3
-3 8 3 49.3 3.6
-3 8 3 42.8 3.3
-3 -8 -3 46.2 3.4
-3 -8 -3 38.5 3.9
3 8 3 43.8 2.9
3 -8 -3 42 3.5
3 8 3 45.9 3.1
3 -8 -3 40.9 3.5
3 -8 -3 39.3 3.4
-3 8 -3 44.4 3.2
3 8 3 43.3 3.3
-3 -8 3 38.1 3.7
-3 -8 3 51.79 3.8
-3 8 -3 48.7 3.2
4 8 -3 87.19 4.5
-4 8 3 91.49 4.4
4 8 -3 76.59 4.3
-4 -8 -3 82.19 4.7
-4 -8 -3 85.19 5.7
-4 -8 -3 84.59 4.5
4 -8 3 94.69 5.1
-4 8 3 80.19 4.8
4 -8 3 93.29 5.9
-4 8 3 93.39 5.1
4 -8 -3 87.29 5.2
4 -8 -3 80.49 4.8
4 8 3 83.79 4.6
4 -8 -3 89.49 4.9
-4 8 -3 89.89 4.8
4 8 3 88.09 4.6
-4 -8 3 82.79 5.1
-4 8 -3 83.29 4.3
-4 -8 3 88.49 5.3
5 8 -3 49.5 3.6
5 8 -3 44.8 3.6
-5 -8 -3 43.3 4
-5 -8 -3 40.4 4.5
5 -8 3 48.4 4.8
-5 8 3 35.3 3.6
-5 8 3 51.79 4.2
-5 -8 -3 42.5 3.6
5 -8 3 50.59 4.3
5 8 3 52.19 3.9
-5 8 -3 42.4 3.6
-5 8 -3 46.5 3.4
-5 -8 3 44.4 4.3
5 -8 -3 42.3 4.2
-5 -8 3 45.3 4.2
5 -8 -3 44.2 4
5 8 3 43.4 3.6
-6 8 3 104.49 6.2
-6 8 3 119.79 6.5
6 -8 3 124.09 7.4
6 -8 3 103.49 6.3
6 8 -3 109.49 5.5
-6 -8 -3 102.69 6.9
6 8 -3 111.79 5.8
-6 -8 3 110.29 6.4
6 -8 -3 97.49 6.2
-6 -8 3 103.89 6.5
-6 8 -3 112.19 5.5
6 8 3 103.79 5.7
6 -8 -3 111.49 6.3
-6 8 -3 107.89 5.9
6 8 3 104.39 5.6
7 8 -3 14.4 3
-7 -8 -3 15.2 3.4
-7 8 3 12.8 3.1
7 -8 3 8.8 3.7
-7 8 3 13.6 3.2
7 -8 3 13.3 3.2
7 8 -3 12.3 2.6
7 8 3 12.2 2.7
-7 -8 3 8.2 2.7
-7 8 -3 15.7 3
7 -8 -3 10.9 3.1
7 8 3 11.3 2.7
7 -8 -3 8.9 2.9
-7 -8 3 11.7 3.1
0 -9 3 -3.6 1.3
0 9 3 1.5 1.4
0 9 3 0.5 0.9
0 9 -3 2.6 1.3
0 9 -3 -0.8 0.7
0 -9 -3 -0.8 1.3
0 -9 3 -0.8 1
0 9 -3 -0.2 0.8
0 -9 -3 0.3 1.2
0 -9 -3 -0.1 1
0 -9 3 -1.5 1.4
-1 -9 -3 1.4 1.6
1 -9 3 0.8 1.8
-1 9 3 1 1
1 -9 3 2.6 1.6
1 9 -3 1.1 0.9
-1 9 3 4.1 1.5
-1 -9 -3 2.8 1.4
1 9 -3 1.3 1.1
-1 9 3 1.7 1.2
1 9 3 2.7 1.2
-1 -9 3 3 1.8
-1 9 -3 1.2 1.1
1 -9 -3 4.8 1.8
1 9 3 4.5 1.2
1 -9 -3 2.1 1.7
-1 -9 3 2.6 1.5
1 9 3 1.7 1.4
-1 9 -3 2.8 1.2
-2 -9 -3 12.2 2.1
2 9 -3 14.2 1.9
-2 -9 -3 14.4 2.4
2 9 -3 13.7 2.1
2 -9 3 10.3 2.5
-2 -9 -3 11.2 2.7
2 -9 3 11.3 2.2
-2 9 3 15.9 2.3
-2 9 3 16.7 2.4
-2 9 -3 13.4 2.1
2 -9 -3 16.6 2.4
-2 9 -3 11.8 2
2 9 3 14.5 2
-2 -9 3 13.1 2.8
2 -9 -3 9.9 2.2
2 -9 -3 9.9 2.3
-2 -9 3 15.2 2.6
2 9 3 14.1 2.3
-3 9 3 39.9 3.5
-3 -9 -3 37.6 3.3
3 -9 3 30.8 3.3
3 -9 3 40.7 4.3
3 9 -3 30.7 2.7
-3 -9 -3 40.3 4.2
-3 9 3 37.2 3.7
-3 -9 -3 38.5 3.4
3 9 -3 36.1 3.1
-3 9 3 34.2 3.2
3 9 3 33.9 3.2
-3 9 -3 34.4 3.1
3 -9 -3 41.3 3.8
-3 -9 3 34.9 3.7
3 9 3 34.7 2.9
3 -9 -3 35.5 3.5
-3 9 -3 35.8 3.1
3 9 3 31 2.7
-3 -9 3 32.5 3.8
3 -9 -3 35.8 3.4
4 9 -3 46.2 3.5
-4 -9 -3 51.69 4
-4 9 3 41.3 3.8
-4 9 3 50.49 4
4 -9 3 42.9 3.9
4 -9 3 45.8 4.7
4 9 -3 47.4 3.6
-4 -9 -3 42.1 3.5
-4 -9 -3 41.9 4.6
-4 -9 3 46.7 4.4
4 9 3 47.2 3.8
4 -9 -3 50.69 5.3
-4 9 -3 47.2 3.5
-4 9 -3 48.5 3.7
4 9 3 42.4 3.5
-4 -9 3 49 4.2
4 -9 -3 43.5 3.9
4 -9 -3 50.09 4.3
5 9 -3 44.9 3.7
-5 9 3 44.2 4.1
5 -9 3 46.2 4.3
5 9 -3 49 3.8
-5 -9 -3 48 4.3
-5 9 3 44.8 4.2
-5 -9 -3 51.49 5.1
5 -9 3 56.29 5.5
5 -9 -3 49.3 4.3
5 9 3 48.6 4.1
5 -9 -3 45.4 4.4
-5 -9 3 41.9 4.4
5 9 3 43.6 3.8
-5 9 -3 52.49 3.9
-5 9 -3 54.89 4.2
-5 -9 3 51.89 4.6
6 9 -3 8.5 2.1
6 9 -3 14.4 2.8
6 -9 3 12.9 3.5
-6 -9 -3 9.6 3.1
-6 9 3 7.8 2.5
6 -9 3 6.2 2.6
-6 9 3 7.5 2.3
6 9 3 6 2.1
-6 -9 3 9.1 3.1
-6 9 -3 8.2 2.4
-6 9 -3 9.8 2.2
6 -9 -3 6.3 2.5
-6 -9 3 10.1 2.9
6 -9 -3 6.9 2.7
6 9 3 10.8 2.6
-7 9 3 30.8 4.3
7 -9 3 26 4.4
7 9 -3 32.2 4
-7 9 3 25 3.9
-7 -9 -3 27.9 4.7
7 -9 3 27.9 4.8
7 9 -3 23.4 3.3
7 -9 -3 26.7 4.4
-7 9 -3 37.9 4.2
-7 -9 3 33.6 4.8
7 9 3 26.1 3.8
-7 -9 3 29.6 4.6
7 9 3 31.5 4.1
7 -9 -3 40.7 4.8
0 10 -3 1.7 1.2
0 -10 -3 -1 1.3
0 -10 -3 -2.4 1.5
0 -10 3 -0.1 1.9
0 10 3 0.2 1.3
0 -10 3 -0.4 1.6
0 10 -3 0.2 0.9
0 10 3 -0.2 1
-1 -10 -3 68.69 5.1
-1 10 3 70.29 3.9
-1 10 3 71.49 4.4
-1 10 3 71.29 4.1
-1 -10 -3 73.09 4.5
1 -10 3 68.79 5.2
1 10 -3 69.49 4.3
-1 -10 3 69.89 5.2
-1 10 -3 72.09 3.9
1 -10 -3 69.29 4.8
1 10 3 67.59 4
1 10 3 63.79 4.2
-1 10 -3 61.89 4
1 -10 -3 69.39 4.6
-1 -10 3 76.59 4.5
2 10 -3 68.29 3.8
-2 -10 -3 62.89 5.1
-2 10 3 74.39 4.6
2 -10 3 69.59 4.4
2 10 -3 57.59 4
-2 10 3 65.39 4.1
2 -10 3 70.79 5.4
-2 -10 -3 63.99 4.2
-2 10 -3 64.69 4
-2 -10 3 73.49 4.5
2 10 3 60.09 3.8
2 10 3 65.89 3.6
2 -10 -3 63.19 4.8
2 -10 -3 61.89 4.5
2 -10 -3 72.49 4.3
2 10 3 64.99 4.3
-2 -10 3 70.99 5.4
-2 10 -3 75.69 4.4
-3 -10 -3 5.6 2.5
3 -10 3 8.5 3
3 10 -3 10.8 2.1
-3 10 3 9 2.3
3 -10 3 9.5 2.2
-3 -10 -3 8.7 2.3
3 10 -3 8.9 2.1
-3 -10 -3 4.5 1.8
-3 10 3 5.3 1.8
3 10 3 7.2 1.8
-3 10 -3 8.4 2.1
-3 -10 3 8.2 2.6
-3 10 -3 12.1 2.3
3 -10 -3 9.1 2.3
-3 -10 3 7.9 2.5
3 -10 -3 8.2 2.4
3 10 3 7.7 1.9
3 10 3 8 2.2
3 -10 -3 14.2 2.9
-4 -10 -3 24.1 4.2
-4 10 3 22.7 3.3
-4 10 3 22.5 3.1
4 10 -3 19.1 2.7
4 10 -3 17.9 2.6
4 -10 3 24.2 4.1
-4 -10 -3 29.7 3.6
4 -10 3 16.8 3.2
-4 -10 -3 16.2 2.8
-4 10 -3 27.8 3.1
4 -10 -3 19.7 3.4
4 10 3 21.7 3.2
4 -10 -3 19.4 3.3
-4 10 -3 20.2 2.7
-4 -10 3 28.3 3.7
4 10 3 20.2 2.8
-4 -10 3 26.3 4
5 -10 3 31.1 5.1
-5 10 3 24.8 3.6
5 -10 3 25 3.9
5 10 -3 32.1 3.4
-5 10 3 21.3 3.4
5 10 -3 31.8 3.4
-5 -10 -3 28.3 4.7
5 10 3 32.1 3.6
-5 10 -3 31.2 3.3
-5 -10 3 31.4 4.3
5 -10 -3 26.1 3.9
5 -10 -3 29.2 3.8
-5 -10 3 29.8 4.3
5 10 3 31 3.5
-5 10 -3 27.6 3.4
6 -10 3 5.1 2.9
-6 -10 -3 6.9 2.9
6 10 -3 6.3 2.1
-6 10 3 6.3 2.3
-6 10 3 6.4 2.5
6 -10 3 10.6 3.5
6 10 -3 7.4 2.1
6 -10 -3 10 2.9
-6 -10 3 7.8 2.8
-6 10 -3 4.5 1.9
-6 -10 3 4.5 2.9
6 10 3 6.5 2.3
6 10 3 6.3 2.4
-6 10 -3 7.8 2.3
6 -10 -3 8.8 2.8
0 -11 -3 0.7 2.1
0 11 3 -2.2 1.1
0 11 -3 -1.3 1.1
0 -11 3 0.1 2.1
0 11 3 1.6 1.4
0 -11 -3 -0.7 1.6
-1 11 3 20.9 2.8
1 11 -3 26 3.1
-1 -11 -3 17.2 3.4
-1 11 3 21.4 2.9
-1 -11 -3 15.4 2.8
1 -11 3 18.3 3.5
-1 -11 3 23.5 4
1 11 3 19.8 2.7
-1 11 -3 21.3 2.6
-1 -11 3 17.7 3.4
1 11 3 21.8 3.1
1 -11 -3 24.8 3.9
1 -11 -3 19.2 3.1
-1 11 -3 22.7 2.9
2 -11 3 111.89 6.9
2 -11 3 114.69 5.8
-2 -11 -3 104.69 5.6
-2 11 3 107.29 5.4
-2 -11 -3 99.39 6.6
2 11 -3 108.69 5.1
-2 11 3 105.89 5.8
2 11 -3 117.49 5.9
-2 11 -3 100.59 5.5
2 11 3 105.99 5.7
2 -11 -3 111.99 6.4
2 -11 -3 101.49 5.9
-2 11 -3 113.09 5.3
-2 -11 3 107.69 6.7
2 11 3 108.69 5.4
-2 -11 3 118.39 5.9
2 -11 -3 115.09 5.5
3 11 -3 40.7 3.5
3 11 -3 38.9 3.7
-3 -11 -3 26.3 3.4
3 -11 3 34.5 4
-3 11 3 38.9 4
-3 -11 -3 39.9 4.9
3 -11 3 32.3 4.9
-3 11 3 37.9 3.7
-3 11 -3 38.4 3.5
-3 -11 3 36.3 4.6
3 -11 -3 29.1 3.9
-3 11 -3 34.1 3.5
3 -11 -3 31.3 4.4
3 11 3 34.2 3.2
3 -11 -3 36.3 3.7
3 11 3 37.8 3.7
-3 -11 3 42.9 4.3
4 -11 3 -0.5 2
4 -11 3 3 3.2
4 11 -3 1.6 1.6
-4 -11 -3 -1.7 2.4
-4 11 3 3.4 1.8
4 11 -3 1 1.4
-4 11 3 1.7 1.9
4 11 3 1.6 1.5
4 -11 -3 4.8 2.4
-4 -11 3 4.2 2.4
-4 -11 3 2.5 2.4
4 11 3 1.7 1.8
4 -11 -3 3.5 1.8
-4 11 -3 5.1 2
-4 11 -3 5.3 1.8
5 11 -3 3.5 2.1
-5 11 3 1.2 1.9
-5 -11 -3 4 3
5 -11 3 5 2.6
-5 11 3 4.5 2.3
5 -11 3 8.9 3.6
5 11 -3 7.7 2.2
5 -11 -3 4.8 2.3
-5 -11 3 3.9 2.4
-5 11 -3 6.9 2.1
5 11 3 1 1.7
-5 11 -3 6.3 2.4
5 -11 -3 4.1 2.5
5 11 3 3.3 2
-5 -11 3 2.4 2.4
0 12 3 2.3 1.8
0 -12 -3 0.9 2.4
0 -12 -3 0.5 1.7
0 -12 3 2.5 2.7
0 12 3 -0.5 1.3
0 12 -3 -1.4 1.3
-1 12 3 24.5 3.1
-1 12 3 23 3.2
-1 -12 -3 22.7 4
-1 -12 -3 21.3 3.4
1 12 -3 25.4 3.3
1 -12 3 21.6 4.1
-1 12 -3 28.2 3.4
-1 -12 3 17.5 3.8
1 -12 -3 21.9 3.8
1 12 3 20.9 3.1
1 12 3 29.5 3.5
1 -12 -3 23.7 3.7
-2 -12 -3 8.6 3.1
2 -12 3 11.3 3.3
-2 -12 -3 10.9 2.5
2 12 -3 9.1 2.1
-2 12 3 10.8 2.6
2 12 -3 8.3 2.3
2 -12 3 10.8 2.5
2 12 3 9.3 2.2
2 -12 -3 10.7 3.2
2 12 3 11.2 2.5
-2 -12 3 11.4 3.2
-2 12 -3 9.3 2.1
-2 12 -3 10.7 2.5
2 -12 -3 9.1 4
2 -12 -3 6.9 2.5
-3 -12 -3 11.8 3.5
-3 12 3 15.8 2.9
3 -12 3 26.2 4.7
-3 12 3 17.3 3.2
3 -12 3 12.9 2.9
3 12 -3 13.7 2.9
3 12 -3 18.2 2.9
3 -12 -3 18 3.6
3 12 3 15.1 2.6
-3 -12 3 19 3.9
-3 12 -3 21.8 3.2
3 12 3 16.8 3
3 -12 -3 17.8 4.5
3 -12 -3 14.7 2.8
-3 12 -3 15.6 2.8
-3 -12 3 15.6 3.1
4 12 -3 28 3.7
4 -12 3 29 5.1
4 -12 3 25.6 4.1
-4 12 3 23.2 3.7
-4 12 3 22.3 3.5
4 12 -3 19.5 3.1
-4 -12 -3 24.5 4.6
-4 -12 3 21.3 4
-4 12 -3 21.7 3.4
4 -12 -3 13.5 3
4 12 3 30.6 3.9
-4 -12 3 26.9 4.3
4 -12 -3 20.2 4
-4 12 -3 23.9 3.3
0 13 3 4.2 2
0 -13 -3 2.2 2
0 -13 -3 -2 2.5
0 -13 3 -0.9 2.6
0 13 3 -1.2 1.8
0 13 -3 3.3 2
-1 -13 -3 21.6 3.7
1 -13 3 19.2 4.3
-1 -13 -3 17 4.3
1 13 -3 11 2.6
-1 13 3 11.4 2.6
1 -13 -3 9.8 2.7
-1 -13 3 11.1 3.4
1 -13 -3 16.2 3.8
1 13 3 19 3.2
-1 13 -3 15.7 2.9
1 13 3 18 3.2
-2 -13 -3 8.4 3.4
2 13 -3 11.4 2.8
-2 -13 -3 14.4 3.4
-2 13 3 13.6 2.9
2 -13 3 14.6 4
2 -13 -3 8.1 2.9
2 13 3 8 2.3
2 -13 -3 16 3.7
2 13 3 15.1 3.1
-2 -13 3 12.2 3.7
-2 13 -3 12.4 2.8
3 -13 3 7.5 3.6
3 13 -3 6.6 2.5
3 13 -3 1.6 1.7
-3 13 3 3.7 2.2
-3 -13 -3 5.6 3.2
3 -13 3 3 2.4
-3 -13 3 7 3.2
-3 13 -3 3.6 2
3 13 3 3.7 2.3
3 -13 -3 3.4 2.5
3 -13 -3 3.1 2.4
-3 13 -3 3.8 2.2
0 14 3 0.4 1.8
0 -14 3 0.2 2.7
0 14 -3 0.8 2.1
0 -14 -3 2.3 2.4
0 -14 -3 -4.9 2.6
-1 14 3 7 2.4
1 -14 3 12.5 3.9
1 14 3 13.6 3
1 14 3 10.3 2.9
-1 -14 3 10.2 3.8
0 0 4 6978.1 114.99
0 0 -4 7009.4 114.49
0 0 4 7020.8 113.99
0 0 -4 6932.81 114.59
0 0 4 6965.7 114.79
0 0 -4 6867.01 114.79
-1 0 -4 3.2 0.5
1 0 -4 2.5 0.8
-1 0 -4 1.2 0.7
-1 0 4 2.5 0.9
-1 0 4 2.1 0.9
-1 0 4 3.2 1
-1 0 -4 3 0.8
1 0 -4 2.1 0.6
-1 0 -4 2.7 0.7
1 0 4 3.4 0.8
1 0 4 3.8 1
1 0 -4 1.6 0.7
2 0 4 2751.72 48
2 0 4 2934.41 49.6
2 0 4 2868.21 49.2
-2 0 4 2884.91 49.6
-2 0 -4 2865.71 49.1
-2 0 -4 2882.11 48.4
2 0 -4 2691.03 47.9
2 0 -4 2905.61 49.1
-2 0 4 2858.21 49.9
-2 0 -4 2865.31 49.1
2 0 -4 2905.81 48.8
-2 0 4 2891.51 49
3 0 4 0.9 0.9
-3 0 4 0.4 0.5
3 0 4 0.4 0.5
3 0 -4 1.4 0.6
-3 0 4 -0.5 0.9
-3 0 -4 -0.4 0.7
-3 0 -4 0.1 0.8
-3 0 4 0 0.7
-3 0 -4 0.4 0.6
3 0 -4 -0.3 0.6
3 0 4 0.4 1
3 0 -4 0.7 0.7
-3 0 4 0.8 0.9
4 0 4 580.94 13.5
-4 0 4 603.24 14.1
-4 0 -4 621.54 13.7
4 0 4 603.74 12.1
-4 0 4 602.34 14.4
4 0 4 609.84 14.4
4 0 -4 601.64 13
-4 0 -4 591.04 13.8
-4 0 4 633.64 12
4 0 -4 609.14 12.3
-4 0 4 607.14 13
4 0 -4 588.74 13.4
-5 0 4 -1.6 0.8
5 0 -4 -0.1 0.7
5 0 -4 -1.2 0.9
5 0 4 0.2 1.2
5 0 -4 -1.1 0.7
-5 0 -4 0.3 1
-5 0 4 -0.6 1
-5 0 4 -0.5 0.7
5 0 4 -0.5 0.9
-5 0 4 0.7 0.8
5 0 4 0.4 0.6
5 0 -4 -0.6 0.5
-5 0 -4 0.9 0.9
-6 0 4 59.49 4.1
6 0 -4 60.59 3.8
-6 0 4 51.39 4.1
6 0 4 60.79 4
-6 0 4 59.29 3.5
6 0 4 59.49 4.5
-6 0 -4 61.29 3.9
-6 0 -4 65.49 4.3
6 0 -4 60.69 3.5
7 0 4 -0.9 1.5
-7 0 -4 0.9 1.4
-7 0 -4 -1.1 0.9
-7 0 4 -0.4 1.1
7 0 -4 -0.2 1.1
7 0 -4 1.1 1.2
7 0 4 0.8 1.5
7 0 -4 -1.3 0.9
-7 0 -4 1 1.9
-7 0 4 -1.5 1
-8 0 -4 129.49 6.6
-8 0 -4 136.89 7.1
8 0 4 125.39 7.7
8 0 -4 125.39 6.2
-8 0 4 124.39 5.9
8 0 -4 117.99 6.3
-8 0 4 123.19 6.6
8 0 -4 132.29 6.1
8 0 4 122.19 6.5
9 0 -4 0 1.4
9 0 -4 1.3 1.4
9 0 4 -0.9 1.8
-9 0 4 -1.5 1.5
-9 0 -4 1.4 1.4
9 0 4 0.2 2.5
0 1 4 698.73 13.3
0 -1 4 680.33 13.6
0 -1 -4 697.53 13
0 1 4 684.23 13
0 1 -4 696.83 12.8
0 1 -4 691.43 13.1
0 -1 -4 708.43 12.4
0 -1 -4 714.83 13.3
0 1 4 687.83 13.4
0 -1 4 692.13 12.8
0 -1 4 664.33 13.1
1 1 -4 637.14 12.5
1 1 -4 641.24 12.5
-1 -1 -4 644.44 12.2
-1 1 4 636.54 13
-1 -1 -4 663.93 11.4
1 1 -4 637.34 11.6
1 -1 4 635.34 12
1 -1 4 657.23 13
1 -1 4 641.64 13
-1 -1 -4 667.23 12.9
-1 -1 -4 660.43 12.6
-1 1 4 638.84 13
-1 -1 4 639.94 11.6
1 1 4 655.03 12.5
-1 -1 4 638.64 13
1 -1 -4 652.03 12.6
-1 1 -4 640.94 12.6
1 1 4 646.74 12.8
-1 1 -4 644.54 11.6
1 -1 -4 659.73 12.5
1 1 4 648.54 11.6
-1 -1 4 655.43 13.1
-1 1 -4 649.54 12.4
2 -1 4 319.77 6.6
2 1 -4 322.17 7.3
2 -1 4 326.37 8.1
-2 -1 -4 319.67 7.8
2 -1 4 323.87 7.8
2 1 -4 318.37 7.6
2 1 -4 330.17 6.4
-2 -1 -4 323.57 7.9
-2 1 4 321.87 8
-2 1 4 301.47 8
-2 -1 4 317.67 6.4
2 -1 -4 319.97 7.5
-2 -1 4 317.37 7.8
-2 1 -4 321.97 7.6
2 1 4 324.37 7.8
2 -1 -4 330.17 7.2
-2 1 -4 329.37 7.4
-2 -1 4 324.37 8.1
2 1 4 314.57 7.2
-3 -1 -4 211.78 5.3
-3 1 4 206.28 6.6
3 1 -4 220.68 4.8
3 -1 4 207.78 6.7
3 1 -4 209.28 6.1
-3 1 4 201.28 6.5
3 -1 4 212.38 6.2
-3 1 4 213.88 6.5
3 -1 4 202.98 4.8
-3 -1 -4 212.88 6.5
-3 -1 -4 208.98 6.2
3 1 -4 207.78 5.6
-3 -1 4 204.38 6.1
3 -1 -4 207.78 5.6
-3 1 -4 211.48 6.2
-3 1 -4 217.18 5.7
3 1 4 212.48 6.2
3 1 4 212.48 5.5
3 -1 -4 204.08 5.9
3 -1 -4 216.78 6.3
-3 -1 4 216.18 6.7
-3 -1 4 211.38 5.1
4 1 -4 152.08 4.8
-4 -1 -4 129.69 5.3
4 -1 4 144.99 5.8
-4 -1 -4 144.99 4.3
4 -1 4 144.49 3.9
4 -1 4 146.79 5.3
4 1 -4 142.39 4
4 1 -4 141.99 5.1
-4 1 4 137.79 5.4
-4 1 4 131.19 5.5
-4 1 4 137.99 5.7
-4 -1 -4 140.69 5.2
4 -1 -4 134.99 5.2
4 -1 -4 147.39 5
-4 -1 4 152.38 4.5
-4 1 -4 135.99 5.3
4 1 4 141.89 5.8
-4 1 -4 158.78 5.5
4 -1 -4 142.29 4.6
4 -1 -4 136.19 4.1
-4 1 -4 148.49 4.8
4 1 4 138.39 4.4
-4 -1 4 149.59 5.7
4 1 4 144.19 5.3
-4 -1 4 145.29 5.1
5 1 -4 10.5 1.5
-5 1 4 9.4 1.9
-5 1 4 9.2 2
5 1 -4 7.6 1.5
5 1 -4 7.7 1.6
5 -1 4 9.8 1.9
-5 -1 -4 7.6 1.6
5 -1 4 8 2
-5 -1 -4 10.5 2
-5 -1 -4 8.5 1.3
5 -1 -4 8.4 1.5
5 1 4 8.5 2
-5 1 -4 9.3 1.6
-5 -1 4 12.9 2.1
5 -1 -4 10 1.8
5 1 4 9.9 1.9
-5 1 -4 8.4 1.8
-5 1 -4 11.1 1.9
-5 -1 4 10.1 1.7
5 1 4 10.5 1.4
-5 -1 4 6 1.7
5 -1 -4 8.8 1.8
-6 -1 -4 116.59 5.5
6 -1 4 129.49 5.7
-6 -1 -4 126.29 6
-6 1 4 110.29 5.9
-6 -1 -4 130.79 4.6
6 1 -4 113.09 5.2
6 1 -4 115.59 4.8
-6 1 4 122.09 5.8
6 1 -4 121.59 5.2
6 -1 4 119.89 6.3
6 1 4 123.49 5.6
6 -1 -4 120.69 4.9
-6 1 -4 127.79 5.9
-6 -1 4 120.89 5.9
6 1 4 123.09 6.3
-6 1 -4 116.89 4.8
-6 1 -4 123.19 5.6
-6 -1 4 128.19 5
6 1 4 122.99 4.7
6 -1 -4 117.79 5.2
-6 -1 4 121.49 5.3
6 -1 -4 112.89 5.4
-7 1 4 7.1 2.4
-7 -1 -4 5.6 2
-7 1 4 6.9 2
7 1 -4 7 1.8
7 -1 4 6.8 2.1
-7 -1 -4 8.4 2
7 1 -4 7.2 1.7
7 -1 4 11.7 2.9
7 1 -4 8.2 2
7 1 4 6.4 2.4
7 1 4 6.4 2.1
7 -1 -4 4.9 1.7
-7 -1 4 4.9 1.7
-7 1 -4 4.8 1.6
-7 -1 4 5.2 1.9
7 -1 -4 7.7 2
-7 1 -4 9.9 2.3
-8 1 4 7.1 2.2
8 1 -4 8.7 2.1
8 1 -4 4.9 1.7
-8 -1 -4 8 2.2
8 1 -4 4.4 1.7
8 -1 4 4.4 2.6
8 -1 4 4.4 2.1
-8 -1 -4 5.4 2.2
-8 1 4 7.6 2.4
8 -1 -4 7.5 1.9
-8 -1 4 9.5 2.3
8 -1 -4 7.6 2
8 -1 -4 3.8 1.7
8 1 4 8.8 2.5
8 1 4 9.2 3
-8 1 -4 5.9 2
-8 -1 4 4.6 2
9 -1 4 15.6 3.3
-9 -1 -4 13.8 3
9 1 -4 11.3 2.4
9 -1 4 11.5 3.6
-9 -1 -4 14.8 3.3
-9 1 4 10.3 2.6
9 1 -4 12.7 2.7
9 -1 -4 10.4 2.5
-9 -1 4 9.5 2.5
9 1 4 9.6 2.9
-9 1 -4 8.7 2.7
-9 -1 4 10.4 2.6
9 1 4 13.9 3.8
0 2 -4 420.76 8.7
0 -2 -4 413.46 8.5
0 2 -4 409.26 8.7
0 -2 -4 418.56 8.3
0 -2 -4 425.66 9.1
0 -2 4 425.56 9.3
0 2 -4 412.46 8.2
0 -2 4 414.86 8.7
0 2 4 428.36 8.7
0 2 4 413.56 9.1
-1 2 4 513.05 10.9
1 2 -4 510.05 10.4
1 -2 4 512.75 10.9
1 -2 4 513.05 10.8
-1 -2 -4 511.15 10.5
1 2 -4 517.85 10.3
-1 2 4 507.65 10.8
1 2 -4 524.45 9.2
-1 2 4 515.75 10.1
1 -2 4 501.75 9.7
-1 -2 -4 511.15 10.8
1 -2 -4 516.65 10.7
-1 2 -4 493.85 9.7
-1 2 -4 514.85 10.4
-1 -2 4 493.85 10
-1 2 -4 511.15 10.5
1 2 4 525.05 10.7
-1 -2 4 507.15 11.1
1 -2 -4 515.45 10.5
-1 -2 4 526.25 11
1 2 4 526.85 9.6
1 2 4 517.45 10.6
-2 -2 -4 178.38 5.4
-2 -2 -4 166.08 5.2
2 -2 4 166.38 5.1
-2 2 4 167.18 4.4
-2 -2 -4 171.58 4.2
2 2 -4 171.88 5
2 2 -4 171.08 4.6
-2 2 4 162.98 5.4
2 -2 4 167.88 3.8
2 -2 4 170.68 5.5
-2 2 4 154.28 5.2
2 2 4 175.08 4.9
2 2 4 164.98 5.1
-2 2 -4 161.78 4.8
-2 -2 4 180.68 5.6
-2 2 -4 172.78 5
-2 2 -4 165.78 3.9
2 -2 -4 173.08 5.1
-2 -2 4 168.58 5.4
-2 -2 4 173.38 4.4
2 -2 -4 179.28 5
-3 2 4 413.56 10.1
-3 -2 -4 406.76 9.8
3 2 -4 404.26 9.6
3 -2 4 403.06 10.3
3 -2 4 395.16 9.7
3 2 -4 408.16 9
-3 2 4 411.46 8.7
-3 -2 -4 406.46 10.2
-3 2 4 417.26 10.4
-3 -2 -4 410.06 8.4
3 -2 4 405.56 7.8
-3 -2 4 412.26 8.9
-3 2 -4 407.76 8
-3 2 -4 415.06 9.5
3 2 4 417.16 9.3
3 2 4 410.96 9.8
3 -2 -4 408.16 9.4
-3 -2 4 424.76 10.1
-3 -2 4 385.06 10.2
3 -2 -4 420.46 9.7
-3 2 -4 425.06 9.9
3 -2 -4 404.76 7.9
-4 -2 -4 211.08 7.2
-4 2 4 219.48 5.7
-4 -2 -4 219.18 5.5
-4 2 4 210.68 7.3
4 -2 4 220.18 6.7
4 -2 4 212.78 7.4
4 2 -4 221.18 6
4 2 -4 212.28 6.5
4 2 -4 226.88 5.2
-4 2 4 219.68 7
-4 -2 -4 215.28 6.8
4 -2 4 211.88 4.9
4 2 4 225.58 6.2
-4 2 -4 211.88 6.7
-4 2 -4 217.58 5.1
-4 2 -4 214.78 6.4
-4 -2 4 212.88 7.2
4 -2 -4 212.68 6.6
4 -2 -4 215.58 5.5
4 -2 -4 220.88 6.4
4 2 4 216.68 6.8
-4 -2 4 213.58 6.7
-4 -2 4 222.18 6.2
-5 -2 -4 194.08 6.7
-5 2 4 199.48 7.4
5 2 -4 183.98 6.4
-5 -2 -4 189.38 7.2
5 -2 4 193.78 7.6
5 2 -4 177.78 6.4
-5 -2 -4 198.48 5.4
5 -2 4 202.08 6.7
-5 2 4 202.58 5.8
5 2 -4 204.68 6
-5 2 4 204.88 7.1
-5 -2 4 208.88 6.3
-5 2 -4 205.28 6.5
-5 -2 4 197.08 6.7
-5 -2 4 186.98 7.1
5 2 4 205.48 6.9
-5 2 -4 195.68 6.9
5 -2 -4 190.98 6.5
5 2 4 191.48 6
5 -2 -4 195.08 6.4
-6 2 4 46.6 2.9
6 2 -4 43.2 3.2
-6 -2 -4 42.5 3.8
6 2 -4 50.99 3.4
-6 2 4 50.69 4.1
6 -2 4 41.3 3.4
6 -2 4 45.9 4.2
-6 2 4 48.9 3.6
-6 -2 -4 44.7 3.5
6 2 -4 48.6 2.9
6 2 4 46.1 3
-6 2 -4 44.4 3.5
-6 -2 4 45.9 3.4
6 2 4 36.1 3.8
6 -2 -4 48.7 3.4
6 -2 -4 45.6 3.2
-6 2 -4 46.8 3.2
-6 -2 4 49.9 3.9
-6 -2 4 47 3.3
6 -2 -4 45.2 3.6
6 2 4 49.5 3.7
7 2 -4 9 1.9
-7 -2 -4 9 2.1
7 2 -4 9.4 2.1
-7 -2 -4 10.3 2.5
7 -2 4 9.8 2.3
-7 2 4 14.9 3
-7 2 4 6.8 1.9
7 -2 4 14.6 3.2
-7 -2 4 5.7 2
7 -2 -4 10.8 2.4
7 2 4 11.7 2.6
-7 -2 4 10.4 2.5
7 2 4 11.4 2.8
7 2 4 5.8 1.5
7 -2 -4 11.1 2.3
-7 2 -4 10.7 2.3
-7 2 -4 8.1 1.9
7 -2 -4 6.4 1.7
8 2 -4 52.59 4
-8 2 4 39.8 4.4
8 -2 4 52.49 5.5
-8 2 4 52.49 4.3
-8 -2 -4 49.1 4.1
-8 -2 -4 49.3 4.7
8 2 -4 39.9 3.6
8 -2 4 42.1 4.1
8 -2 -4 39.8 3.7
-8 -2 4 51.09 4.3
-8 2 -4 40.6 4
8 2 4 46.5 4.4
8 2 4 44.9 5.2
-8 -2 4 39.8 4.1
8 -2 -4 49.1 4.1
-8 2 -4 48.8 3.7
8 -2 -4 46.1 3.7
9 2 -4 8.9 2.4
9 -2 4 5.2 2.9
-9 2 4 8.5 3
-9 -2 -4 5.4 2.6
9 2 -4 7.5 2.3
-9 -2 -4 7 2.3
9 2 -4 5.2 1.9
9 -2 4 11.2 3.2
-9 -2 4 6.8 2.5
-9 2 -4 6.1 2.2
9 -2 -4 10.8 2.7
9 -2 -4 8.8 2.6
9 2 4 8.6 3.3
9 2 4 9.9 2.8
0 3 -4 4085.89 69.19
0 -3 4 4142.99 69.09
0 3 -4 4149.88 69.19
0 3 -4 4065.79 68.39
0 3 4 4113.49 68.89
0 -3 -4 4270.67 69.99
0 3 4 4131.09 69.79
0 -3 4 4146.19 70.09
0 -3 4 4156.88 69.69
0 -3 -4 4218.58 69.49
0 3 4 4155.48 69.19
0 -3 -4 3994.5 68.89
1 -3 4 99.59 3.9
-1 -3 -4 99.09 3.7
-1 -3 -4 99.29 3.6
1 -3 4 100.29 2.8
1 3 -4 104.69 3.3
-1 3 4 102.39 3.8
-1 -3 -4 98.69 2.9
-1 3 4 98.19 3.7
-1 3 4 93.89 2.9
1 -3 4 94.99 3.7
1 3 -4 100.19 3.4
1 3 4 96.99 3.6
-1 -3 4 102.59 3.8
1 -3 -4 96.29 3.4
-1 3 -4 98.19 3.3
1 3 4 91.99 3.3
1 -3 -4 99.09 2.8
-1 3 -4 96.69 3.4
-1 -3 4 101.19 4
1 3 4 98.59 2.9
1 -3 -4 102.69 3.7
-2 -3 -4 238.68 6.5
2 3 -4 227.08 6.1
-2 3 4 233.48 6.7
-2 3 4 224.98 5.1
-2 3 4 229.28 6.4
-2 -3 -4 226.38 6.6
-2 -3 -4 225.68 5
2 3 -4 221.58 5.6
2 -3 4 220.58 6.3
2 -3 4 229.38 6.7
-2 -3 4 216.08 5.8
-2 3 -4 227.58 6.1
-2 3 -4 226.18 5.4
-2 -3 4 228.98 6.7
-2 3 -4 233.28 6.2
-2 -3 4 224.48 6.6
2 -3 -4 224.58 6.2
2 -3 -4 223.18 6.3
2 3 4 221.58 6.1
2 -3 -4 227.58 4.9
2 3 4 222.28 6.2
2 3 4 229.18 4.8
-3 -3 -4 123.29 4.7
3 3 -4 118.79 4.4
3 -3 4 119.69 4.5
-3 3 4 122.69 4.7
-3 -3 -4 129.39 5.1
-3 3 4 123.49 5
-3 -3 -4 122.89 3.3
3 3 -4 123.29 3.9
3 -3 4 128.69 5.2
-3 3 4 124.19 3.4
-3 3 -4 128.29 3.6
-3 -3 4 119.49 4.2
3 -3 -4 121.79 4.5
3 3 4 129.09 4.5
3 -3 -4 122.59 3.4
-3 3 -4 126.99 4.5
3 -3 -4 118.79 4.5
-3 3 -4 125.39 4.6
3 3 4 124.09 4.6
-3 -3 4 120.89 4.9
-3 -3 4 114.89 4.9
4 3 -4 150.38 5.4
4 -3 4 147.39 5.5
-4 3 4 160.58 4.3
-4 -3 -4 158.58 6.2
-4 3 4 164.08 5.9
4 3 -4 165.68 4.9
-4 -3 -4 156.58 4.2
4 3 -4 157.88 5.4
4 -3 4 158.48 6.3
-4 3 4 157.28 6.1
-4 -3 -4 159.58 5.7
-4 3 -4 164.18 4.5
-4 3 -4 166.98 5.9
-4 -3 4 155.08 5.3
4 3 4 160.68 5.7
4 3 4 159.18 5.3
-4 3 -4 159.88 5.5
4 -3 -4 157.98 5.6
-4 -3 4 155.58 5.8
-4 -3 4 153.98 6.1
4 -3 -4 153.78 5.6
4 -3 -4 159.48 4.6
-5 3 4 72.09 4.4
5 -3 4 70.89 4.7
5 3 -4 63.59 3.6
-5 3 4 78.89 4.2
-5 -3 -4 74.19 4.6
-5 3 4 82.49 3.7
5 3 -4 76.09 3.3
-5 -3 -4 72.69 3.9
5 3 -4 70.69 3.8
5 -3 4 62.89 3.7
5 -3 -4 67.19 3.9
5 3 4 70.39 4
5 -3 -4 77.59 4
-5 3 -4 69.49 3.7
-5 -3 4 67.19 4
-5 3 -4 70.19 4
-5 -3 4 67.89 3.8
5 3 4 77.09 3.6
-5 -3 4 69.49 4.3
6 3 -4 33.2 2.9
6 -3 4 30.4 3
-6 -3 -4 31.3 3.5
6 3 -4 29.9 2.8
-6 3 4 32.4 3.1
6 -3 4 28.7 3.8
-6 -3 -4 33.9 3.1
-6 3 4 33.5 3.4
-6 -3 4 32.3 3.5
-6 -3 4 31.6 3.1
6 3 4 30.4 2.6
6 3 4 32.1 3.2
-6 3 -4 38.2 3
6 -3 -4 33.1 2.9
-6 -3 4 33.7 3.1
6 -3 -4 36.6 3.2
-6 3 -4 34.3 3.1
7 3 -4 189.68 7.2
-7 3 4 177.68 8
-7 -3 -4 176.18 8.1
7 -3 4 167.38 8.4
7 -3 4 159.28 6.9
-7 3 4 167.98 7.2
7 3 -4 180.28 7
-7 -3 -4 172.08 7.1
-7 3 -4 174.78 6.9
-7 -3 4 162.08 7.5
-7 3 -4 168.88 7.4
7 -3 -4 169.28 7.4
7 -3 -4 184.88 7.2
7 3 4 171.48 6.6
7 3 4 169.68 7.3
-7 -3 4 172.18 7.3
7 -3 -4 172.88 7.2
-8 3 4 22.5 3.2
8 -3 4 23.9 4.3
8 3 -4 20.4 3
8 3 -4 17.9 2.8
-8 -3 -4 29.4 4
-8 -3 -4 23.8 3.2
8 -3 4 29.7 4
-8 3 4 19 3.5
-8 3 -4 19.7 3.1
8 -3 -4 19.8 3.2
-8 -3 4 24.7 3.4
8 3 4 17.4 3.2
8 3 4 23.7 4.2
-8 -3 4 14.9 2.8
-8 3 -4 19.7 2.8
8 -3 -4 19.2 3
0 4 -4 880.91 16.8
0 4 4 868.51 16.2
0 4 -4 891.91 16
0 4 4 874.41 16.7
0 4 -4 917.31 16
0 -4 4 890.01 17.6
0 -4 -4 853.01 16.7
0 -4 4 878.31 17.5
0 4 -4 876.61 16.7
0 -4 4 870.81 16.5
0 -4 -4 883.31 17.5
0 -4 4 883.31 16
0 4 4 877.21 17.3
1 4 -4 197.98 5.1
-1 -4 -4 193.98 4.7
-1 -4 -4 188.68 5.7
-1 4 4 196.08 5.7
1 -4 4 195.38 4.5
1 -4 4 190.48 6
-1 4 4 191.38 4.4
1 -4 4 194.38 5.8
-1 -4 -4 195.98 5.9
1 4 -4 202.58 5.1
-1 4 4 192.98 5.7
1 4 -4 194.38 5.5
-1 -4 4 204.28 6.2
1 -4 -4 197.48 5
1 4 4 177.58 5.6
-1 4 -4 192.38 5.2
-1 4 -4 192.68 5.3
1 -4 -4 191.28 5.8
1 -4 -4 191.58 5.4
-1 -4 4 190.68 5.6
-1 4 -4 196.48 4.1
-1 -4 4 201.18 5.7
1 4 4 192.38 4.9
-1 4 -4 193.18 5.5
2 4 -4 206.78 5.9
-2 4 4 211.08 6.2
2 -4 4 205.88 6.1
-2 4 4 202.88 6.3
2 -4 4 210.78 6.7
2 4 -4 202.58 5.7
2 4 -4 220.88 5.4
-2 4 4 196.38 4.4
-2 -4 -4 209.78 6.5
-2 -4 -4 197.28 4.5
-2 -4 -4 207.08 6.2
2 -4 -4 210.58 5.1
-2 -4 4 194.78 6.4
2 4 4 207.58 4.9
2 -4 -4 207.08 6
-2 4 -4 210.48 5.9
2 4 4 205.98 5.9
-2 -4 4 202.18 6.3
-2 4 -4 202.58 5.9
2 4 4 210.08 6.1
2 -4 -4 205.68 6.2
-3 -4 -4 304.17 8.1
3 4 -4 286.07 6.8
-3 4 4 281.17 8.3
-3 -4 -4 288.67 8.6
3 4 -4 293.37 7.7
3 -4 4 286.07 7.7
-3 4 4 275.27 5.7
3 -4 4 283.37 8.5
-3 4 4 284.17 7.9
-3 -4 -4 277.47 5.8
3 4 -4 271.87 7.5
-3 -4 4 281.47 8.3
3 4 4 288.97 7.8
3 -4 -4 293.27 8
-3 4 -4 277.97 6.7
3 4 4 283.67 7.7
-3 4 -4 289.57 7.9
-3 4 -4 277.17 7.7
3 -4 -4 283.17 7.9
3 4 4 285.37 6.1
-3 -4 4 271.77 8.2
3 -4 -4 277.27 6.6
4 4 -4 42.6 2.8
4 -4 4 39.4 2.9
-4 -4 -4 41.3 3
-4 -4 -4 32.8 3.1
4 4 -4 33.3 2.5
4 -4 4 34.4 3.3
-4 4 4 40.1 3.1
4 4 -4 36.6 2.1
-4 4 4 40.5 2.9
4 4 4 41.6 2.9
4 -4 -4 44.6 3
-4 -4 4 36.5 3.1
4 4 4 39 2.7
4 -4 -4 40.8 3
-4 4 -4 41 2.2
4 -4 -4 41.2 3.4
-4 4 -4 38.8 2.9
-4 -4 4 38.1 3
-4 4 -4 36.2 2.7
5 4 -4 14 2
-5 -4 -4 15.8 2.8
-5 4 4 10.5 2.2
5 -4 4 15 2.7
5 -4 4 14.1 2.3
5 4 -4 12.5 1.9
-5 4 4 14.6 2.2
5 4 -4 14.7 1.6
-5 -4 -4 12 2.1
5 4 4 13.6 2.2
-5 4 -4 11.8 2.1
5 -4 -4 9.7 2
-5 -4 4 15 2.3
5 -4 -4 15.6 2.3
-5 4 -4 11.3 1.9
5 4 4 14.4 1.9
-5 4 -4 11.6 1.6
-5 -4 4 12 2.3
-6 4 4 10.6 2.1
6 4 -4 8.8 1.8
6 -4 4 9 2.1
-6 -4 -4 10.8 2.2
-6 4 4 8.1 2.2
-6 -4 -4 11.8 2.6
6 4 -4 10.5 2
6 -4 4 16.7 3.2
6 -4 4 7.8 2.2
6 -4 -4 13.2 2.4
-6 4 -4 11 2.2
6 4 4 10.7 2.1
-6 -4 4 10.3 2.2
-6 -4 4 14.8 2.7
-6 4 -4 13.2 2.3
6 4 4 12.6 2.4
6 -4 -4 14.1 2.5
-7 -4 -4 18.2 3.3
-7 -4 -4 13.9 2.6
7 4 -4 16.2 2.4
7 -4 4 15.6 3
-7 4 4 21.2 3.5
7 -4 4 13.8 3.2
-7 4 4 11.4 2.3
7 4 -4 16.6 2.7
-7 -4 4 12.7 2.7
7 -4 -4 18.9 2.9
-7 -4 4 14.3 2.7
-7 4 -4 18.3 2.8
-7 4 -4 16.8 2.6
7 -4 -4 12.6 2.5
7 4 4 20.1 3.1
7 4 4 12.3 2.2
8 -4 4 24.6 4.5
8 4 -4 15.3 2.8
8 -4 4 17.9 3.6
-8 -4 -4 16.9 3.6
8 4 -4 19.2 3.1
-8 -4 -4 12.2 2.5
-8 4 4 22.1 3.7
-8 4 -4 14.3 2.6
8 -4 -4 19.6 3.2
8 -4 -4 22.2 3.4
8 4 4 20.2 3.6
-8 4 -4 21.1 3.6
8 -4 -4 15.7 3
-8 -4 4 16.7 3.1
8 4 4 17.8 2.7
0 -5 4 653.03 12.6
0 -5 4 668.43 12.9
0 5 -4 654.13 13.5
0 -5 -4 649.54 14.2
0 -5 4 676.93 14.3
0 5 -4 652.43 12.4
0 5 4 664.63 14
0 -5 4 668.93 14.4
0 5 -4 659.23 13.4
0 -5 -4 643.04 13.6
0 5 4 661.03 12.6
0 5 -4 646.54 12.6
0 5 4 671.73 13.5
-1 5 4 32.6 2.3
-1 -5 -4 21.5 2.2
-1 -5 -4 24.2 2.3
-1 5 4 24.8 1.3
1 -5 4 30.7 2.7
-1 -5 -4 30.4 1.6
1 5 -4 24.9 2
-1 5 4 26.4 2.1
1 -5 4 25.7 2.3
1 5 -4 27.1 1.8
-1 5 -4 26.1 1.9
-1 5 -4 28.4 1.3
-1 -5 4 26 2.4
-1 5 -4 25.7 2
-1 -5 4 27.7 1.3
-1 5 -4 25.8 2
1 5 4 25.3 2.2
1 -5 -4 26.5 2
1 -5 -4 28.9 2.4
-1 -5 4 26.9 2.2
1 5 4 29.3 1.8
-1 -5 4 25 2.4
1 -5 -4 28 2.1
2 5 -4 1054.59 20
-2 5 4 1062.49 20.6
2 -5 4 1076.29 20.5
2 -5 4 1046.2 20.3
2 -5 4 1045.4 21.5
-2 -5 -4 1055.89 21.3
2 5 -4 1054.69 19.3
2 5 -4 997 20.3
-2 5 4 1012.6 20.9
-2 -5 -4 1047.3 20.8
-2 -5 -4 1015.3 18.2
2 5 4 1048.3 20.1
2 5 4 1061.09 19.2
-2 -5 4 1051.59 20.8
2 5 4 1028.3 20.6
2 -5 -4 1052.29 19.6
-2 5 -4 1038.7 20.4
-2 -5 4 1043 21.2
-2 -5 4 1057.49 20.7
-2 5 -4 1050.89 20.5
2 -5 -4 1002.6 20.8
2 -5 -4 1050.39 20.5
-2 5 -4 1055.89 19.8
3 -5 4 433.16 11
3 5 -4 439.26 10.7
3 -5 4 450.85 10.6
3 5 -4 447.36 9.5
-3 -5 -4 462.35 11.9
-3 5 4 454.75 10.9
3 -5 4 434.66 11.7
3 5 -4 457.95 10.6
-3 5 4 433.86 11.3
-3 -5 -4 444.46 10.9
3 -5 -4 445.76 9.8
3 5 4 443.06 9.2
3 -5 -4 452.45 11
-3 -5 4 459.45 11
-3 -5 4 438.86 11.3
3 -5 -4 421.96 11
-3 5 -4 439.16 10.8
-3 5 -4 430.76 10.9
3 5 4 433.46 10.7
-3 -5 4 449.46 11.3
3 5 4 422.46 10.7
4 5 -4 95.79 4.3
-4 5 4 91.99 4.7
-4 5 4 88.09 4.7
-4 5 4 97.59 4.4
-4 -5 -4 99.29 4.6
4 -5 4 80.79 4.9
4 -5 4 92.59 4.7
4 5 -4 85.29 4.1
4 5 -4 100.49 3.5
-4 -5 -4 88.29 5
4 -5 4 104.09 4.5
4 5 4 83.29 4.2
4 -5 -4 89.59 4.5
4 5 4 89.19 4.2
-4 -5 4 92.69 4.5
-4 5 -4 86.29 4.3
4 -5 -4 95.69 4.6
-4 5 -4 94.89 3.7
-4 5 -4 92.39 4.5
-4 -5 4 90.99 4.8
-4 -5 4 87.19 4.6
5 -5 4 29.7 2.9
-5 5 4 23.3 2.6
5 -5 4 26.9 3.1
5 5 -4 24.3 2.4
5 -5 4 26.7 3.4
-5 5 4 25.2 2.9
-5 5 4 26.8 3
-5 -5 -4 32 3.4
5 5 -4 23 2.4
-5 -5 -4 23.5 2.7
-5 5 -4 24.5 2.6
5 5 4 28.4 2.9
-5 -5 4 20.8 3
5 5 4 24.2 2.5
-5 -5 4 21.8 2.8
5 -5 -4 25.4 2.8
-5 5 -4 30.8 2.9
-5 5 -4 26 2.2
-5 -5 4 28.7 3
5 -5 -4 24.1 2.8
6 5 -4 42.1 3.3
6 5 -4 37.4 3.3
-6 5 4 37.7 3.8
-6 -5 -4 41.8 3.4
-6 -5 -4 39.8 4.1
6 -5 4 40.5 4.5
6 -5 4 40.6 3.9
-6 5 4 38.5 3.7
-6 5 4 45 3.9
6 5 4 35.8 3.1
-6 5 -4 42.2 3.7
-6 5 -4 41.9 3.4
6 -5 -4 35.2 3.5
6 5 4 41.4 3.7
6 -5 -4 41.8 3.7
-6 -5 4 35.6 3.6
-6 -5 4 41.8 3.8
7 -5 4 8.6 2.6
-7 -5 -4 7.3 2.5
-7 -5 -4 9.2 2.2
7 -5 4 10.2 3.1
7 5 -4 10.3 2.3
7 5 -4 12.6 2.4
-7 5 4 9.5 2.6
7 5 4 12.5 2.3
7 -5 -4 9.8 2.4
-7 -5 4 7.3 2.2
-7 5 -4 7.7 2.1
-7 -5 4 10.5 2.6
7 -5 -4 14.9 2.9
7 5 4 15.3 3
-7 5 -4 11.4 2.6
8 5 -4 11.9 2.7
-8 -5 -4 12.1 2.5
8 -5 4 12.3 3.5
-8 -5 -4 8.2 2.8
8 -5 4 9.3 2.9
8 5 -4 12.9 2.6
-8 5 4 12.1 3
-8 -5 4 12.2 3
8 -5 -4 16.3 3.3
8 5 4 11.2 2.9
-8 5 -4 16.3 3.1
8 5 4 10.9 2.3
8 -5 -4 14.4 3.1
-8 5 -4 15 2.8
0 -6 -4 19.7 2.1
0 -6 4 16.1 2.3
0 -6 4 19.7 2.3
0 6 4 18 2
0 6 -4 17.8 1.8
0 6 -4 20.3 1.7
0 -6 -4 19.7 2.1
0 -6 -4 16.7 1.6
0 -6 4 15.5 1.5
0 6 4 17.6 1.4
0 6 -4 18.3 1.4
0 6 4 17.8 1.8
1 6 -4 179.78 5.7
1 -6 4 181.18 5.9
-1 -6 -4 184.88 6.2
1 6 -4 178.88 5.1
1 -6 4 175.58 6.4
1 -6 4 176.88 6.1
-1 6 4 172.78 4.1
-1 -6 -4 169.98 6
-1 6 4 175.38 5.8
-1 -6 -4 179.88 4.6
-1 6 4 186.88 5.9
-1 -6 4 183.98 6.3
1 -6 -4 177.98 5.6
-1 6 -4 187.88 5.8
1 6 4 172.48 5.9
1 6 4 193.88 5.5
1 -6 -4 167.08 6
-1 6 -4 182.38 4.2
1 -6 -4 185.78 5.6
-1 6 -4 176.88 5.5
-1 -6 4 177.88 4.3
-1 -6 4 169.08 6.2
1 6 4 185.48 5.2
2 6 -4 335.27 8.8
2 -6 4 335.57 8.8
-2 6 4 322.87 9.1
-2 6 4 337.07 8.9
2 6 -4 326.97 8.3
-2 -6 -4 346.27 9.8
2 6 -4 351.46 7.9
-2 -6 -4 337.27 6.8
-2 -6 -4 334.87 9.1
2 -6 4 347.17 8.9
2 -6 4 320.27 9.7
-2 -6 4 346.17 9.4
2 -6 -4 353.86 8.5
-2 6 -4 341.37 8.5
2 -6 -4 334.07 8.8
-2 -6 4 332.37 9.5
-2 6 -4 325.77 8.7
-2 6 -4 335.87 8.8
2 6 4 352.36 8.1
2 6 4 339.97 8.5
2 6 4 324.67 9
2 -6 -4 338.27 9.4
3 -6 4 290.77 8.5
-3 -6 -4 297.27 9.3
-3 -6 -4 281.97 8.4
3 -6 4 283.47 9.2
-3 6 4 292.57 8.3
3 -6 4 293.77 8.1
-3 6 4 281.97 8.6
3 6 -4 287.67 8.2
3 6 -4 285.37 8
3 6 -4 301.97 7
-3 6 4 291.07 8.8
3 6 4 287.47 8.4
3 6 4 297.17 8.2
3 -6 -4 281.67 8.6
-3 6 -4 291.17 7.7
3 -6 -4 304.67 7.8
-3 -6 4 279.27 8.7
-3 6 -4 295.37 8.5
3 -6 -4 286.67 8.5
3 6 4 290.37 7.1
-3 -6 4 301.57 8.7
-3 6 -4 279.07 8.2
4 -6 4 1.7 1.7
4 6 -4 2 1.2
-4 6 4 3 1.4
4 6 -4 0.8 0.8
-4 -6 -4 0.8 1.2
-4 6 4 0.9 1.1
4 -6 4 1.1 1.4
-4 6 4 1.9 1.2
4 -6 4 1.5 1.3
-4 -6 -4 1.4 1.5
4 -6 -4 0.1 1.1
4 6 4 1.5 1.1
-4 -6 4 -0.2 1.2
-4 -6 4 1.4 1.4
4 -6 -4 0.5 1.2
4 6 4 1.6 1.2
-4 6 -4 3.1 1.3
-4 6 -4 1.6 1.1
-5 -6 -4 54.89 3.8
5 -6 4 54.99 4.7
5 -6 4 55.79 4.3
5 6 -4 46.8 3.5
-5 -6 -4 56.39 4.6
-5 6 4 50.49 4
-5 6 4 60.49 4.2
5 6 -4 58.49 3.7
-5 -6 4 54.69 4.2
-5 6 -4 60.69 4.1
-5 -6 4 45.4 3.9
5 6 4 55.69 3.9
5 -6 -4 54.79 4.1
5 6 4 54.59 3.8
-5 6 -4 50.69 3.2
5 -6 -4 53.59 4
-5 6 -4 53.99 3.8
-6 -6 -4 38.1 4.3
6 -6 4 37.6 3.9
6 6 -4 33.8 3.1
-6 6 4 45.2 4.1
6 -6 4 39.3 4.8
-6 -6 -4 40.7 3.5
6 6 -4 39.8 3.5
-6 6 4 35.2 3.7
-6 6 -4 39.4 3.5
-6 6 -4 42.5 3.9
-6 -6 4 43.1 4
-6 -6 4 38 3.9
6 6 4 45.3 3.6
6 6 4 42.1 3.8
6 -6 -4 46.1 4.1
6 -6 -4 42.9 3.9
-7 -6 -4 13.1 2.5
7 -6 4 14.5 3.6
7 -6 4 10.2 2.8
-7 6 4 15.5 3.1
7 6 -4 15.5 2.8
7 6 -4 11.8 2.3
-7 6 4 12.1 2.9
-7 -6 -4 11 2.9
7 -6 -4 10.5 2.8
-7 -6 4 15 2.9
7 -6 -4 14.2 2.9
-7 6 -4 17.9 3.3
-7 -6 4 12.1 3
-7 6 -4 14.5 2.8
7 6 4 13.7 2.6
7 6 4 13.8 3
8 6 -4 2.7 1.9
8 6 -4 4.4 1.8
-8 -6 -4 4.4 2.7
8 -6 4 4.6 3.3
-8 6 4 5.6 2.5
8 -6 4 2 2.5
8 6 4 8.9 2.3
-8 -6 4 2.7 2.3
-8 6 -4 6 2.1
-8 6 -4 4.7 2.3
8 -6 -4 3.9 2.4
8 6 4 7.5 2.6
8 -6 -4 1.7 2.1
0 -7 4 109.19 4.9
0 7 -4 104.69 3.5
0 -7 4 110.89 3.8
0 -7 4 100.79 5
0 7 -4 105.69 4.5
0 7 4 116.99 4.8
0 -7 -4 120.59 5
0 -7 -4 121.49 4.1
0 7 4 115.99 3.6
0 -7 -4 116.49 5
0 7 -4 107.49 4.1
0 7 4 115.29 4.5
1 7 -4 6.5 1.3
1 -7 4 7.5 1.5
-1 -7 -4 4.9 1.5
1 -7 4 4.5 1.6
-1 -7 -4 6 1.8
-1 7 4 5.9 1.4
-1 7 4 3.2 1.2
1 -7 4 5.6 1.6
-1 -7 -4 5.3 1
1 7 -4 6.6 1.4
-1 7 -4 7 1.4
1 -7 -4 6.6 1.6
-1 7 -4 3.7 0.8
1 -7 -4 3.5 1.2
1 7 4 8.8 1.7
-1 -7 4 5.5 1.7
1 7 4 5.9 1.2
1 -7 -4 5.5 1.5
-1 7 -4 6.3 1.4
-1 -7 4 6.7 1.8
-1 -7 4 4.3 1.1
1 7 4 6.4 1.3
2 7 -4 18.3 1.6
2 -7 4 20.3 2.4
-2 -7 -4 20.3 2.7
2 -7 4 18.2 2.8
2 7 -4 16 1.9
-2 -7 -4 20.6 2.4
2 7 -4 13.8 1.7
-2 7 4 15.2 2.1
2 -7 4 15.8 2.2
-2 7 4 16.7 2.1
2 7 4 16.4 1.8
2 -7 -4 14.7 2.3
-2 -7 4 19.1 2.6
-2 -7 4 17.4 2.5
2 7 4 17.9 2.2
2 -7 -4 16.2 2.3
2 -7 -4 12.3 2
-2 7 -4 12.1 1.8
-2 7 -4 16.2 1.9
3 -7 4 80.89 4.5
3 -7 4 99.99 4.5
3 7 -4 89.99 4.4
-3 7 4 99.89 4.6
-3 7 4 97.29 4.8
-3 7 4 98.29 4.9
-3 -7 -4 86.99 4.5
3 7 -4 91.99 4.2
3 -7 4 96.49 5.4
-3 -7 -4 93.99 5.3
-3 -7 4 89.59 4.8
3 -7 -4 98.49 4.5
3 -7 -4 95.79 4.7
3 -7 -4 86.19 4.7
3 7 4 98.29 4.4
-3 -7 4 96.69 5
-3 7 -4 95.49 4.6
-3 7 -4 93.89 4.2
3 7 4 90.39 4.5
-3 7 -4 91.59 4.5
3 7 4 98.19 3.8
-4 7 4 21.8 2.8
4 7 -4 21.5 2.4
-4 -7 -4 16.9 3
4 7 -4 21.8 2.4
4 -7 4 14.5 2.9
-4 -7 -4 20 2.6
4 -7 4 20 3
-4 7 4 21.6 2.7
-4 7 4 27 3.1
4 -7 -4 16.3 2.7
-4 7 -4 21.4 2.6
4 7 4 21.5 2.6
-4 7 -4 16.3 2.3
-4 -7 4 20.2 2.9
4 7 4 21.5 2.6
-4 -7 4 19.5 2.9
-4 7 -4 21.3 2.2
4 -7 -4 21.2 2.8
5 7 -4 12.4 2.2
5 7 -4 13.6 2.3
5 -7 4 8.1 2.2
-5 -7 -4 5.5 2.3
-5 7 4 10.6 2.4
-5 7 4 6.2 2
5 -7 4 9.3 2.8
-5 -7 -4 8.1 2.1
5 7 4 9.4 2.2
-5 7 -4 5.8 1.9
-5 -7 4 12.3 2.6
-5 -7 4 8.1 2.1
-5 7 -4 12.3 2.3
5 7 4 7.6 2
5 -7 -4 11.7 2.5
5 -7 -4 10.7 2.4
6 7 -4 29.6 3.3
6 7 -4 18.2 2.6
6 -7 4 28.8 4.4
-6 -7 -4 28.3 4
-6 7 4 29.7 3.6
6 -7 4 21.8 3.6
-6 7 4 28.1 3.6
-6 -7 -4 28.1 3.3
6 -7 -4 26.5 3.6
6 7 4 23.4 3.3
-6 -7 4 36.1 4
-6 7 -4 25.1 3.3
6 -7 -4 22.3 3.4
6 7 4 21.6 3
-6 7 -4 24.3 3
-6 -7 4 20.9 3.5
-7 -7 -4 44.2 4.1
-7 7 4 49.1 4.8
7 7 -4 50.89 4
-7 7 4 46 4.7
-7 -7 -4 42.3 5
7 7 -4 48.9 4.2
7 -7 4 53.09 5.1
7 -7 4 59.09 6.1
7 -7 -4 45.9 4.8
-7 -7 4 51.49 4.9
7 -7 -4 42.3 4.5
7 7 4 45 4.4
7 7 4 48 4.3
-7 7 -4 44.5 4.5
-7 7 -4 51.69 4.4
-7 -7 4 45.7 4.7
0 8 -4 106.99 4.8
0 -8 -4 109.99 5.2
0 8 -4 115.59 3.8
0 -8 -4 109.69 5.2
0 8 4 111.89 4.8
0 8 -4 112.89 4.4
0 8 4 108.49 4.9
0 -8 -4 122.09 4.3
0 -8 4 116.89 5.2
0 -8 4 120.79 4.2
0 -8 4 105.49 5.4
1 -8 4 1.9 1.2
1 8 -4 1 0.9
-1 -8 -4 2.2 1.4
-1 8 4 2.8 1.2
1 -8 4 1.7 1.5
-1 8 4 1.8 1.2
1 8 -4 1.3 0.9
-1 -8 -4 2.4 1.6
1 -8 4 3.1 1.8
1 8 4 0.4 0.8
-1 8 -4 3.6 1.2
1 8 4 2.3 1.1
-1 -8 4 1 1.5
1 -8 -4 2.4 1.3
-1 8 -4 3.3 1.2
1 8 4 2.8 1.3
-1 -8 4 0.1 1.5
1 -8 -4 4 1.7
2 -8 4 281.47 8.4
-2 8 4 291.47 9
2 8 -4 280.27 8.5
-2 8 4 298.97 8.5
-2 -8 -4 287.07 8.8
2 8 -4 284.37 8.5
-2 8 4 272.67 8.5
-2 -8 -4 281.47 9.5
2 8 -4 290.27 7.9
2 -8 4 273.87 9.5
2 -8 4 289.57 8.4
2 -8 -4 286.37 8.5
-2 -8 4 294.87 9.4
-2 -8 4 280.07 9
2 8 4 288.47 7.9
-2 8 -4 291.17 8.5
2 -8 -4 287.97 8.6
2 -8 -4 282.17 9.1
-2 8 -4 281.07 8.4
2 8 4 295.77 8.9
3 -8 4 57.89 3.9
-3 8 4 53.69 3.8
3 8 -4 53.79 3.5
-3 -8 -4 51.99 3.7
-3 -8 -4 52.89 4.5
-3 8 4 46.7 3.7
3 -8 4 50.99 4.4
3 8 -4 57.59 3.4
-3 8 4 58.59 3.6
3 -8 -4 53.79 3.9
3 -8 -4 54.29 4.2
-3 8 -4 50.39 3.3
3 -8 -4 52.19 4.1
-3 8 -4 54.79 3.6
3 8 4 55.59 3.8
-3 -8 4 59.19 4.2
3 8 4 52.79 3.1
3 8 4 58.19 3.5
-3 -8 4 40 3.8
4 8 -4 70.89 4.2
-4 -8 -4 73.49 4.4
-4 8 4 75.09 4.8
-4 -8 -4 82.49 5.5
4 -8 4 78.39 4.9
4 8 -4 83.19 4.4
-4 8 4 74.39 4.7
4 -8 4 72.09 5.5
-4 8 -4 77.29 4.1
4 8 4 77.69 4.6
4 -8 -4 75.19 4.7
-4 8 -4 69.49 4.3
-4 -8 4 65.29 4.7
4 -8 -4 73.19 4.9
-4 -8 4 69.29 4.8
4 8 4 67.79 4.2
5 -8 4 51.49 4.4
-5 8 4 60.89 4.7
-5 -8 -4 53.09 4
-5 8 4 61.29 4.7
-5 -8 -4 59.79 5.3
5 8 -4 57.39 4
5 8 -4 58.59 4
5 -8 4 59.49 5.5
-5 -8 4 53.19 4.5
-5 8 -4 54.99 4.1
5 8 4 57.99 4.1
5 -8 -4 64.89 4.8
-5 8 -4 58.79 3.7
5 8 4 51.99 4
5 -8 -4 48.7 4.4
-5 -8 4 50.39 4.4
-6 8 4 18.3 3.5
-6 8 4 19.9 3.3
6 -8 4 20.5 4
-6 -8 -4 13.8 2.6
6 8 -4 25.5 3.1
6 -8 4 16.9 3.2
6 8 -4 24.6 3.2
-6 -8 -4 14 3.2
6 8 4 21.9 3.2
6 -8 -4 19.8 3.4
-6 8 -4 18.6 3
6 -8 -4 18.8 3.4
-6 -8 4 21.1 3.7
6 8 4 19.7 3.1
-6 -8 4 14.8 3.1
7 8 -4 27.8 3.4
7 -8 4 20.9 3.9
-7 8 4 32.8 4.3
7 -8 4 33.7 5.2
7 8 -4 28 3.7
-7 8 4 25.9 3.9
-7 -8 -4 33.7 4.7
7 8 4 29 3.9
-7 8 -4 26.2 3.7
7 -8 -4 23.8 3.9
7 -8 -4 29.5 4.2
7 8 4 28.4 4
-7 -8 4 30.4 4.3
-7 -8 4 24.8 4.2
0 9 4 126.29 5.6
0 -9 4 143.19 5.9
0 9 4 123.39 5.4
0 -9 -4 130.59 6.1
0 -9 -4 136.49 6.1
0 -9 -4 130.99 4.8
0 9 -4 134.19 5.7
0 9 -4 126.29 4.9
0 -9 4 128.59 6.4
1 -9 4 23.2 2.9
-1 9 4 21.4 2.5
1 9 -4 16.9 2.5
1 -9 4 14.5 2.8
1 9 -4 20.4 2
1 -9 4 12.9 2.2
-1 -9 -4 17.7 2.8
1 9 -4 20.6 2.5
-1 -9 -4 18.2 3
-1 9 4 18 2.5
-1 9 -4 18.7 2.2
1 -9 -4 16.7 2.6
-1 -9 4 11.5 2.4
1 9 4 18.4 2.6
-1 -9 4 21.2 3.3
-1 9 -4 15 2.2
1 -9 -4 20.9 3
1 9 4 20.7 2.4
-2 9 4 12.7 2.3
-2 -9 -4 10 2.3
-2 9 4 5.3 1.8
2 -9 4 7.5 2
2 9 -4 11.6 1.9
-2 -9 -4 7.2 2.4
-2 9 4 9.4 1.9
2 -9 4 6.5 2.4
2 9 -4 7.8 1.8
2 9 4 9.2 2.2
2 -9 -4 10.5 2.3
-2 -9 4 4.5 2
-2 9 -4 7.9 1.9
2 -9 -4 5.1 1.8
2 9 4 6.1 1.6
2 9 4 4.5 1.4
2 -9 -4 10.7 2.5
-2 -9 4 10.3 2.5
-2 9 -4 9.4 2
3 -9 4 109.09 6.4
3 -9 4 98.79 5.3
-3 -9 -4 102.59 5.3
-3 -9 -4 95.79 6.2
-3 9 4 93.79 5.3
-3 9 4 97.29 4.8
3 9 -4 106.39 5.1
-3 9 4 99.89 5.3
3 9 -4 100.49 4.7
-3 9 -4 99.89 4.9
-3 -9 4 94.39 5.7
3 9 4 95.39 4.8
-3 -9 4 107.69 5.7
3 -9 -4 98.89 5.2
3 9 4 100.09 5.2
-3 9 -4 93.79 4.9
3 -9 -4 92.29 5.4
3 9 4 99.19 4.7
-4 -9 -4 90.19 5.1
4 9 -4 87.79 4.9
-4 9 4 95.39 5.5
4 9 -4 84.59 4.7
-4 9 4 86.89 5.5
4 -9 4 103.29 6.6
-4 -9 -4 86.59 6.2
4 -9 4 84.09 5.3
4 -9 -4 88.89 5.5
-4 9 -4 92.09 4.8
-4 -9 4 95.29 5.9
4 9 4 93.59 5.3
-4 9 -4 91.19 5.1
4 9 4 96.29 5
4 -9 -4 93.19 5.4
-4 -9 4 94.39 5.7
-5 -9 -4 81.89 6.4
-5 9 4 80.89 5.5
-5 9 4 81.79 5.5
5 9 -4 87.29 5
-5 -9 -4 78.89 4.9
5 -9 4 79.19 5.4
5 -9 4 83.59 6.5
5 9 -4 89.39 5.1
-5 -9 4 90.99 5.8
5 -9 -4 85.09 5.5
5 9 4 78.59 4.9
-5 -9 4 90.99 6
5 -9 -4 71.39 5.4
5 9 4 88.69 5.3
-5 9 -4 88.09 5.3
-5 9 -4 79.99 4.7
6 -9 4 32.5 5.3
-6 -9 -4 22.4 4.2
-6 9 4 19.5 3.6
-6 9 4 17.9 3.4
6 9 -4 24.9 3.4
6 -9 4 20.7 3.8
6 9 -4 28.8 3.3
6 -9 -4 28 4
-6 9 -4 25.1 3.6
6 -9 -4 32.5 4.1
-6 -9 4 29.7 4.4
6 9 4 33.2 3.8
6 9 4 22.6 3.5
-6 -9 4 28.5 4.3
0 10 -4 20.8 2.7
0 -10 -4 20.3 3.4
0 -10 4 12.4 2.5
0 10 -4 15.4 2.1
0 -10 -4 11.7 2.5
0 -10 4 12.8 2.9
0 10 4 19.5 2.6
0 10 4 18.7 2.7
1 10 -4 1.4 1.4
-1 -10 -4 1.6 1.5
1 10 -4 1.5 1.1
1 -10 4 1.6 1.5
1 -10 4 4.4 2.4
-1 10 4 2.8 1.5
-1 -10 -4 4.4 2.1
-1 10 4 4.9 1.7
1 10 4 -1.3 1.2
1 -10 -4 0.9 1.5
1 10 4 0.9 1.2
-1 10 -4 0.4 1.1
1 -10 -4 2.5 1.9
-1 10 -4 3.1 1.4
-1 -10 4 5.9 2.5
-1 -10 4 2.6 1.9
2 -10 4 4.2 1.8
-2 -10 -4 2.3 1.8
-2 10 4 2.8 1.5
-2 10 4 6.4 2
2 10 -4 6 1.8
2 10 -4 5.5 1.5
-2 -10 -4 1.7 2.1
-2 10 4 8 2
2 -10 4 5.3 2.5
2 -10 -4 2.9 1.7
2 -10 -4 7.7 2.4
2 10 4 4.4 1.5
-2 10 -4 8.6 2
-2 10 -4 4.9 1.6
2 -10 -4 7.5 2.3
-2 -10 4 7 2.6
-2 -10 4 5.2 2.3
2 10 4 7.9 2.3
3 -10 4 230.98 8.5
-3 -10 -4 230.08 9.8
-3 10 4 235.58 8.7
-3 -10 -4 230.88 8.4
-3 10 4 231.88 8.9
3 -10 4 231.98 10
3 10 -4 239.48 8.5
3 10 -4 242.68 7.9
-3 10 -4 230.78 8.1
-3 -10 4 230.78 9.4
3 -10 -4 219.48 8.9
3 -10 -4 230.28 8.4
3 10 4 216.08 7.7
-3 -10 4 238.48 8.8
-3 10 -4 238.48 8.3
3 10 4 236.78 8.6
-4 -10 -4 173.28 8.8
-4 -10 -4 184.68 7.5
-4 10 4 173.08 7.8
4 10 -4 175.88 7.3
4 10 -4 180.18 7.1
4 -10 4 181.58 8
-4 10 4 177.38 8
4 -10 4 187.88 9.2
4 10 4 189.98 7.3
4 -10 -4 176.48 8.2
-4 -10 4 195.08 8.3
4 10 4 173.58 7.5
4 -10 -4 180.58 7.8
-4 10 -4 182.68 7.3
-4 10 -4 178.08 7.4
-4 -10 4 183.28 8.5
-5 -10 -4 6.4 2.8
-5 10 4 9.6 2.6
-5 10 4 7.7 2.6
5 -10 4 7 3.3
5 -10 4 6.9 2.6
5 10 -4 10 2.4
5 10 -4 5.6 2
5 10 4 9.7 2.4
5 10 4 9.7 2.5
-5 -10 4 12.3 3
5 -10 -4 7.1 2.6
-5 10 -4 8.4 2.2
-5 -10 4 12.5 3.1
5 -10 -4 6.2 2.3
-5 10 -4 4.4 1.7
-6 10 4 8.5 2.6
6 -10 4 7.4 3
6 10 -4 5.6 2.2
-6 10 4 2.6 2.4
6 10 -4 3.8 1.9
6 -10 4 4.4 3.4
-6 -10 -4 0.8 2.8
6 -10 -4 6.1 2.7
6 -10 -4 4.2 2.4
-6 -10 4 10 3.2
-6 10 -4 3.6 2.1
-6 -10 4 4.3 2.9
6 10 4 4.4 2.2
6 10 4 7.7 2.6
0 11 4 54.09 4.3
0 11 4 56.89 4.1
0 -11 -4 65.39 4.7
0 -11 4 49.1 5.1
0 11 -4 60.79 4.4
0 -11 -4 61.09 5
-1 -11 -4 107.69 5.9
-1 11 4 100.29 5.3
-1 11 4 99.59 5.6
1 11 -4 107.89 5.8
-1 -11 -4 121.29 6.8
1 -11 4 110.69 6.9
-1 11 -4 113.19 5.8
-1 11 -4 101.79 5
-1 -11 4 107.09 5.8
1 -11 -4 111.59 6.1
-1 -11 4 104.99 6.7
1 -11 -4 111.59 6.3
1 11 4 110.49 5.5
1 11 4 111.99 5.8
-2 11 4 39.9 3.9
2 -11 4 37.3 3.7
-2 -11 -4 38.4 3.9
2 11 -4 36.6 3.1
2 11 -4 35.4 3.6
-2 11 4 31 3.2
-2 -11 -4 40.9 4.7
-2 11 4 46.4 3.8
2 -11 4 36.9 4.8
2 11 4 36.8 3.3
-2 -11 4 36.5 4.1
-2 -11 4 32.6 4.6
-2 11 -4 33.3 3.2
2 11 4 39.4 3.9
2 -11 -4 34.5 4
2 -11 -4 32.1 4.2
-2 11 -4 34.8 3.4
2 -11 -4 34.2 3.5
-3 -11 -4 41.8 5.1
3 11 -4 38.5 3.4
3 11 -4 35.5 3.6
3 -11 4 35.3 4.9
-3 11 4 37.6 4
-3 -11 -4 28.3 3.6
3 -11 4 34.1 3.9
-3 11 4 34.5 3.8
-3 11 -4 27.3 3.3
3 11 4 35.4 3.9
-3 -11 4 34.5 4.7
-3 -11 4 36.2 4.2
3 -11 -4 31.9 3.7
3 -11 -4 32.5 4.1
-3 11 -4 35.9 3.5
4 -11 4 3.9 2.4
-4 11 4 7.2 2.4
4 -11 4 9.6 3.8
-4 11 4 9.5 2.5
-4 -11 -4 7.3 2.9
-4 -11 -4 8.3 2.5
4 11 -4 11.6 2.4
4 11 -4 12.3 2.6
4 -11 -4 10.8 2.6
-4 11 -4 8.2 2.1
-4 11 -4 9 2.4
-4 -11 4 8.4 2.9
4 11 4 10.5 2.6
4 -11 -4 6.4 2.6
-4 -11 4 6 2.7
4 11 4 7.4 2.1
-5 11 4 3.5 2.2
5 11 -4 5.5 2.1
-5 -11 -4 10.1 3.6
5 -11 4 3.7 2.5
-5 11 4 3.1 2
5 -11 4 7.1 3.5
5 11 -4 4.7 1.9
5 -11 -4 4.8 2.3
-5 11 -4 4.1 2.1
-5 11 -4 4.2 2
5 11 4 4.2 2.1
5 11 4 2.3 1.7
5 -11 -4 6.3 2.8
-5 -11 4 7.7 3.2
-5 -11 4 6.6 3
0 12 4 114.49 6.1
0 -12 -4 116.49 7
0 12 4 105.19 5.9
0 12 -4 108.89 6
0 -12 -4 103.59 6.2
0 -12 4 108.69 7.3
-1 -12 -4 167.08 8.4
-1 12 4 157.18 6.9
1 12 -4 159.38 7.4
1 -12 4 164.08 8.8
-1 12 4 155.48 7.3
-1 -12 -4 162.78 7.5
1 -12 -4 159.88 7.9
1 12 4 147.89 6.8
-1 -12 4 150.38 8.3
1 12 4 173.18 7.5
1 -12 -4 147.99 7.6
-1 12 -4 163.78 7.3
-2 12 4 6.2 2.2
-2 -12 -4 2 2
2 -12 4 12.6 3.6
2 12 -4 9 2.6
-2 -12 -4 4.4 2.7
-2 -12 4 6.9 2.6
2 12 4 4.3 1.8
-2 -12 4 2.5 2.8
2 -12 -4 4.1 2.3
-2 12 -4 5.8 1.9
-2 12 -4 5.5 2
2 12 4 7.5 2.3
-3 12 4 3.7 2
3 -12 4 2.4 3.3
-3 12 4 3.1 1.9
3 -12 4 6 2.6
-3 -12 -4 4.1 3
-3 -12 -4 2 2.1
3 12 -4 3.5 2
3 12 -4 5 1.9
3 -12 -4 3.5 2.2
3 -12 -4 7.5 3
3 12 4 3.8 2.3
-3 12 -4 4.5 2
-3 12 -4 3.5 1.8
-3 -12 4 1.1 2.4
-3 -12 4 4.8 2.8
4 -12 4 0.9 2.2
4 12 -4 2.4 1.9
-4 12 4 3.4 2.2
-4 -12 -4 3.9 3.2
4 12 -4 2.3 1.8
4 -12 4 5.9 3.3
-4 12 4 0.2 1.9
-4 12 -4 1.1 1.8
-4 12 -4 3.4 1.8
-4 -12 4 5.9 2.9
4 -12 -4 4.6 2.4
4 -12 -4 0.5 2.3
4 12 4 0.3 2
-4 -12 4 6.1 2.9
0 -13 4 4.8 3.3
0 13 -4 5.1 2.2
0 13 4 2.3 1.8
0 13 4 1.5 2
0 -13 -4 4.9 3.1
0 -13 -4 3.6 2.4
1 13 -4 8.6 2.7
-1 -13 -4 12 3
-1 -13 -4 15.1 3.8
-1 13 4 8.2 2.4
1 -13 4 9.8 3.7
-1 13 4 10.1 2.8
1 13 4 7 2.3
1 -13 -4 9.1 3.4
-1 -13 4 8.7 3.3
1 13 4 10.8 2.7
-1 13 -4 11.1 2.7
1 -13 -4 12.1 3.2
2 -13 4 13 4
-2 -13 -4 11.3 3.6
2 13 -4 18 3.4
-2 13 4 11.5 2.8
-2 -13 -4 8.9 2.8
2 -13 -4 19.2 3.8
-2 13 -4 15.5 2.9
2 13 4 16.2 3.1
2 13 4 22.7 3.3
-2 -13 4 18.9 4.2
-3 13 4 0.2 1.7
3 13 -4 -2.4 1.6
3 -13 4 0.3 3.1
-3 -13 -4 1.4 2.8
3 13 4 -1.7 1.7
3 -13 -4 0.8 2.3
-3 13 -4 0.3 1.8
-3 13 -4 -1.3 1.5
-3 -13 4 -0.7 2.7
0 0 -5 0.7 0.6
0 0 5 0.8 0.8
0 0 5 -0.6 0.5
0 0 5 0.1 0.7
0 0 -5 0 0.5
0 0 -5 0.4 0.6
1 0 5 -0.5 0.8
-1 0 5 -0.7 0.8
-1 0 -5 0.6 0.6
1 0 -5 -0.8 0.5
1 0 5 0.5 0.7
-1 0 5 0.2 0.7
-1 0 -5 0.1 0.4
1 0 -5 -0.1 0.6
-1 0 5 -1.2 0.7
-1 0 -5 1 0.7
1 0 -5 1.3 0.7
-2 0 -5 511.85 11.2
2 0 5 511.15 11.4
-2 0 -5 499.25 10.5
-2 0 5 519.05 11.9
-2 0 5 497.55 11.5
-2 0 5 491.65 11
2 0 5 492.45 10.3
2 0 5 518.05 11.5
2 0 -5 499.15 10.8
2 0 -5 505.25 10.1
2 0 -5 486.05 10.9
-2 0 -5 507.85 11
-3 0 -5 0 0.6
-3 0 -5 1 0.9
3 0 -5 1.2 0.8
-3 0 5 2.9 1.1
-3 0 5 0.5 1
3 0 5 2.2 0.7
3 0 5 0.8 1
3 0 -5 1.2 0.6
-3 0 -5 1.2 0.9
3 0 -5 0.6 0.8
3 0 5 -0.6 1
-3 0 5 -0.5 0.9
-4 0 5 83.59 2.7
-4 0 -5 79.09 3.5
4 0 -5 77.39 3.1
-4 0 5 89.89 3.8
4 0 -5 84.39 3.7
4 0 -5 78.89 3.9
4 0 5 71.99 3.9
4 0 5 84.69 4.5
-4 0 5 78.39 4.4
4 0 5 78.29 3.1
-4 0 5 79.09 4.2
-4 0 -5 79.19 4.1
-4 0 -5 82.39 4
-5 0 5 -1 1.1
-5 0 5 -0.3 0.9
5 0 -5 0.1 0.7
5 0 -5 0.1 0.9
5 0 5 0.1 1.1
-5 0 -5 0.1 1
-5 0 -5 -0.2 0.8
-5 0 5 1 1.1
5 0 5 -0.2 0.6
5 0 -5 1.3 0.9
5 0 5 -0.2 1.2
6 0 -5 288.87 8.5
-6 0 5 273.47 9.5
6 0 5 286.77 9.3
6 0 5 293.27 10.3
6 0 -5 272.17 8.9
-6 0 -5 281.17 9.6
-6 0 5 265.07 8.2
-6 0 -5 275.07 9.1
-6 0 5 271.87 9.9
7 0 5 0.7 2
7 0 -5 1.1 1.2
7 0 5 1 1.6
-7 0 -5 0.7 1.3
7 0 -5 0.7 1.3
-7 0 5 1.1 1.5
-7 0 5 2.7 1.4
-7 0 -5 -1 1.4
8 0 5 20.6 3.4
-8 0 -5 18.2 3.2
8 0 -5 17 2.6
8 0 -5 19.9 2.9
-8 0 -5 18.3 3.4
8 0 5 21.2 4.3
-8 0 5 22.4 3.4
8 0 -5 24.1 3.2
0 -1 -5 0.6 0.7
0 -1 5 0.7 0.7
0 -1 -5 0.1 0.5
0 -1 -5 -0.1 0.5
0 1 5 0.3 0.7
0 1 -5 0.1 0.6
0 -1 -5 0.3 0.7
0 -1 5 1.7 0.9
0 1 5 -0.4 0.5
0 1 5 0.3 0.6
0 1 5 -0.6 0.6
0 -1 5 -0.1 0.7
0 1 -5 0.5 0.6
1 1 -5 278.87 6.8
-1 1 5 280.37 7.3
-1 -1 -5 280.37 5.7
-1 1 5 280.27 7.3
1 -1 5 270.97 6.4
-1 -1 -5 285.57 7.1
-1 -1 -5 276.77 6.6
1 1 -5 287.27 6.1
1 1 -5 291.07 6.8
-1 -1 -5 283.67 6.6
1 -1 5 286.17 7.3
-1 1 5 286.77 6.9
-1 -1 5 279.07 5.9
1 1 5 271.67 6
1 1 5 286.67 7.2
-1 1 -5 279.47 6.7
1 -1 -5 278.17 6.8
-1 1 -5 287.17 5.9
1 -1 -5 282.97 6.7
-1 -1 5 284.57 7.3
1 1 5 282.07 7
1 1 5 282.97 6.9
-1 -1 5 280.37 7.3
1 -1 -5 275.77 6.8
-1 1 -5 287.47 6.8
2 1 -5 3.3 1
2 1 -5 4.9 1.1
-2 -1 -5 4.8 1
-2 1 5 5.3 1.3
2 -1 5 3.9 1.2
-2 1 5 3.1 1.2
-2 -1 -5 6.8 1.4
-2 -1 -5 6 1.3
2 -1 5 3.2 1.2
2 -1 5 5.2 0.9
2 1 -5 4.8 0.8
-2 1 -5 4.8 0.7
2 1 5 5 1.3
2 -1 -5 5.3 1
2 -1 -5 3.1 1
-2 -1 5 4.7 0.8
-2 1 -5 7.6 1.3
2 1 5 8 1.4
-2 -1 5 6.1 1.5
-2 1 -5 7.3 1.3
2 -1 -5 2.7 1
2 1 5 9.8 1.5
-2 -1 5 2.4 1.2
3 -1 5 169.58 6.1
-3 1 5 165.78 6.1
3 -1 5 163.58 4.4
-3 1 5 175.28 6.1
-3 -1 -5 173.88 5.8
3 1 -5 176.58 4.3
3 -1 5 169.58 5.7
3 1 -5 178.78 5.3
-3 -1 -5 174.18 5.7
3 1 -5 167.48 5.5
3 -1 -5 176.08 5
3 -1 -5 171.58 5.7
3 1 5 177.78 5.9
-3 1 -5 172.48 5.7
-3 -1 5 164.68 6
3 1 5 167.68 6
3 1 5 176.38 5.1
-3 -1 5 175.38 5.7
-3 -1 5 175.08 4.3
3 -1 -5 170.88 5.4
-3 1 -5 178.38 5.3
4 -1 5 221.28 7.1
-4 -1 -5 231.98 6.3
-4 -1 -5 226.58 7.1
4 1 -5 234.98 5.6
-4 1 5 226.88 7.8
4 1 -5 218.38 7
4 -1 5 230.98 7.8
-4 1 5 214.08 7.4
4 -1 5 228.48 5.6
-4 -1 -5 220.18 7.3
4 1 -5 218.38 6.5
4 1 5 233.68 6.3
-4 1 -5 225.98 7.2
4 1 5 224.08 7.7
4 1 5 222.68 7.2
-4 -1 5 228.88 7
-4 1 -5 218.78 6.5
4 -1 -5 236.68 7.3
-4 -1 5 234.38 5.8
4 -1 -5 223.38 6.7
4 -1 -5 231.58 6.3
-4 -1 5 211.78 7.4
5 -1 5 6 1.7
-5 -1 -5 5.4 1.7
-5 1 5 4.3 1.5
-5 -1 -5 5.4 1.6
-5 1 5 9.4 2.2
5 1 -5 5.5 1.4
5 -1 5 7.1 2.1
-5 -1 -5 7.7 1.4
5 1 -5 5.3 1.3
5 1 5 10.2 2.1
-5 1 -5 11.2 2
5 -1 -5 9.4 1.8
-5 1 -5 8.8 1.6
-5 -1 5 4.9 1.7
5 -1 -5 7.2 1.8
5 1 5 6.9 2
5 -1 -5 5.4 1.3
-5 -1 5 6.4 1.6
5 1 5 7.3 1.4
-6 -1 -5 59.79 3.2
-6 1 5 64.59 4.4
-6 -1 -5 56.79 4.2
6 -1 5 52.89 4.6
6 -1 5 50.09 3.9
-6 -1 -5 45.1 3.6
-6 1 5 54.69 4.4
6 1 -5 53.79 3.7
6 1 -5 50.29 3.2
6 1 5 55.89 4.6
6 -1 -5 51.99 3.8
-6 1 -5 53.79 3.3
6 1 5 52.59 3.9
-6 -1 5 56.79 4.3
-6 -1 5 56.29 3.7
6 1 5 46.5 4.4
-6 1 -5 61.69 4.1
6 -1 -5 58.49 3.8
-7 1 5 171.98 8.1
7 -1 5 177.38 8.5
-7 -1 -5 165.28 7.2
-7 -1 -5 173.58 7.9
7 1 -5 171.58 6.4
7 1 -5 168.08 7
7 1 -5 170.98 6.9
7 -1 5 168.58 7.3
-7 1 5 165.58 7.5
7 -1 -5 164.08 6.7
7 -1 -5 170.38 7.2
-7 1 -5 161.58 7.3
-7 -1 5 171.38 6.9
7 1 5 173.28 8.5
7 1 5 170.58 7.4
-7 -1 5 158.08 7.4
-7 1 -5 163.08 6.3
-8 -1 -5 23.5 3.7
-8 -1 -5 18 3
8 1 -5 17 2.8
8 -1 5 19.1 4.1
8 1 -5 18.8 2.9
-8 1 5 22.7 3.3
8 -1 5 21.1 3.5
-8 -1 5 16.6 3.1
8 -1 -5 25.2 3.1
-8 -1 5 15.8 2.9
8 -1 -5 22.1 3
-8 1 -5 29.8 3.6
8 -1 -5 25.7 3.3
8 1 5 24.3 4.5
8 1 5 17.3 3.3
0 2 5 0 0.6
0 2 -5 -0.8 0.4
0 -2 5 -0.8 0.7
0 2 5 -0.6 0.6
0 -2 -5 -0.5 0.7
0 2 -5 -0.7 0.6
0 -2 -5 0 0.7
0 -2 5 -0.6 0.7
0 -2 -5 -0.1 0.6
0 2 5 -0.5 0.6
0 -2 5 0.4 0.9
-1 -2 -5 39.5 2.3
1 -2 5 45.1 2.7
-1 -2 -5 40.4 2.5
-1 2 5 47.2 2.6
1 2 -5 43.4 2.3
1 2 -5 38.6 2.2
-1 -2 -5 43.1 2.6
1 -2 5 45.7 2.6
1 2 -5 44.1 1.7
1 -2 5 43.7 2.1
-1 2 5 43.9 2.6
1 2 5 45.8 2.5
-1 2 -5 42.5 2.3
-1 2 -5 44.7 2.2
1 -2 -5 43.2 2.4
1 2 5 42.2 1.9
1 -2 -5 43.3 2.3
-1 2 -5 44.7 1.9
-1 -2 5 38.7 2.7
-1 -2 5 40.4 2.6
1 2 5 41.3 2.4
-1 -2 5 43.2 2.1
-2 -2 -5 291.97 7.5
-2 -2 -5 289.67 7.7
2 2 -5 297.17 7.2
-2 2 5 291.47 8
2 2 -5 286.47 5.7
2 2 -5 288.47 7.4
-2 -2 -5 289.47 7.7
-2 2 5 284.27 6.9
2 -2 5 287.17 7.9
2 -2 5 303.87 7.9
-2 2 5 280.77 7.9
2 2 5 298.37 7.3
-2 2 -5 291.97 7.3
-2 -2 5 284.97 7.9
-2 2 -5 302.87 7.5
-2 -2 5 294.57 6.5
2 -2 -5 296.67 7.3
2 2 5 288.97 7.6
-2 2 -5 282.47 6.1
2 -2 -5 282.77 7.4
-2 -2 5 293.67 8
-3 2 5 210.98 6.8
3 2 -5 200.28 6.2
-3 -2 -5 221.18 6.9
-3 -2 -5 204.58 5.3
-3 -2 -5 200.88 6.4
3 -2 5 200.98 6.4
-3 2 5 209.68 5.7
3 2 -5 209.48 5.8
-3 2 5 196.68 6.8
3 2 -5 213.98 4.4
3 -2 5 208.68 6.9
3 -2 5 209.58 4.8
3 -2 -5 208.98 6
-3 2 -5 210.38 6.1
-3 -2 5 211.88 6.7
3 2 5 208.18 6
-3 2 -5 216.38 6.5
3 -2 -5 207.08 6.3
3 2 5 205.58 6.5
-3 -2 5 209.38 6.9
-3 -2 5 207.08 5.3
-3 2 -5 207.38 4.6
-4 -2 -5 276.97 8.6
-4 2 5 269.87 8.8
4 -2 5 287.97 8.3
4 -2 5 283.77 8.9
-4 -2 -5 275.27 6.8
-4 -2 -5 290.17 8.4
-4 2 5 290.97 8.6
4 2 -5 269.47 8
-4 2 5 287.17 7.1
4 2 -5 282.07 7.4
-4 2 -5 270.47 8.1
-4 -2 5 268.67 8.1
4 -2 -5 281.77 8
4 2 5 275.67 7.4
4 -2 -5 286.77 7.7
-4 2 -5 293.47 7.9
4 2 5 273.87 8.2
-4 -2 5 276.57 8.8
-4 -2 5 285.37 7.1
-5 2 5 17 2.5
5 2 -5 14.1 1.8
5 -2 5 14.3 2.3
-5 -2 -5 14.3 2.2
5 2 -5 12.2 2
-5 -2 -5 12.7 2.3
-5 2 5 17.8 1.8
-5 -2 -5 14.3 1.6
5 -2 5 14.7 2.7
-5 2 5 13.7 2.5
-5 2 -5 13 2
5 2 5 12.5 2.1
-5 2 -5 11.9 2
-5 -2 5 13 1.8
5 2 5 12.8 1.7
5 -2 -5 12.9 1.9
-5 -2 5 12.9 2.4
5 -2 -5 17.3 2.2
5 -2 -5 14 2.2
-5 -2 5 15.4 2.4
-6 -2 -5 6.9 1.9
6 2 -5 7 1.5
6 -2 5 9.5 2.5
-6 2 5 7.5 2.2
6 -2 5 9.1 2.2
-6 2 5 5.7 1.8
6 2 -5 7.3 1.9
-6 -2 -5 9.4 2.3
6 2 -5 9.7 2
6 2 5 8.5 2.5
6 -2 -5 10.8 2.2
6 2 5 10.8 1.8
-6 -2 5 8.3 2.3
6 -2 -5 10.2 2
-6 2 -5 7.4 1.7
6 2 5 6.7 2.1
6 -2 -5 9.8 2.1
-6 -2 5 7.1 1.9
-6 2 -5 8 2
-7 2 5 7 2.1
7 2 -5 8.4 2
7 -2 5 5.8 2.1
-7 -2 -5 8.9 2.2
-7 2 5 10 2.6
7 -2 5 9.9 2.9
-7 -2 -5 9.4 2.6
7 2 -5 5.8 1.7
7 -2 -5 8.5 2.1
-7 -2 5 5 2.1
7 2 5 9.1 2.4
-7 -2 5 4.8 1.8
-7 2 -5 5.6 1.7
7 2 5 8.4 2.9
-7 2 -5 8 2.1
7 -2 -5 6.8 2.2
-8 2 5 30.9 3.7
-8 -2 -5 41.1 4.5
8 2 -5 34.6 3.6
-8 2 5 35.1 4.4
8 2 -5 37.1 3.7
-8 -2 -5 31.6 3.6
8 -2 5 30.4 3.9
8 -2 5 33.2 5
-8 -2 5 26.6 3.8
-8 -2 5 31 3.7
8 -2 -5 40.4 3.8
8 2 5 36.2 4.3
8 -2 -5 35.2 3.8
-8 2 -5 35.9 3.5
-8 2 -5 33.4 3.8
8 2 5 40.7 5.1
0 3 5 0.4 0.7
0 3 -5 0.2 0.7
0 3 -5 -0.5 0.6
0 -3 -5 0.1 0.8
0 3 5 -0.4 0.7
0 -3 5 -0.7 0.9
0 -3 5 1.3 0.9
0 3 -5 0.6 0.6
0 -3 -5 1.4 0.8
0 -3 -5 -0.1 0.6
1 -3 5 36 1.9
1 3 -5 41.3 2.3
-1 3 5 37.8 2.5
-1 -3 -5 37.2 2.5
1 -3 5 41.5 2.7
-1 3 5 41.9 2
-1 -3 -5 40.6 2.4
1 3 -5 37.5 2.1
1 -3 5 39.9 2.6
-1 3 5 46 2.7
1 3 -5 38 1.5
-1 3 -5 42.2 2.2
-1 3 -5 39.5 2.1
1 -3 -5 36.7 2.3
1 3 5 43.4 2.6
1 -3 -5 38 1.7
1 3 5 35.5 1.8
-1 -3 5 41.6 2.3
-1 -3 5 38.3 2.6
1 -3 -5 38.6 2.5
-1 -3 5 38.4 2.8
1 3 5 41.8 2.4
-1 3 -5 38.6 2.3
2 3 -5 133.39 4.2
-2 -3 -5 121.99 3.6
-2 3 5 119.99 3.7
-2 3 5 126.19 4.7
2 -3 5 127.39 4.8
2 -3 5 119.59 3.2
-2 3 5 121.49 4.8
-2 -3 -5 125.19 4.7
-2 -3 -5 121.69 4.7
2 3 -5 123.29 4.3
2 -3 5 126.89 4.9
2 3 5 118.89 4.4
-2 3 -5 123.79 3.7
-2 -3 5 120.49 4.8
-2 3 -5 127.59 4.4
2 -3 -5 120.89 4.5
2 3 5 123.19 3.2
2 -3 -5 126.59 4.4
2 3 5 125.09 4.5
-2 -3 5 123.89 4.9
-2 -3 5 120.49 4
-2 3 -5 119.49 4.3
-3 -3 -5 79.29 2.8
-3 -3 -5 82.29 4
3 3 -5 84.79 3.4
-3 3 5 82.79 4.2
-3 -3 -5 89.49 4.3
-3 3 5 80.79 4
3 -3 5 89.09 4.4
3 -3 5 88.49 4.1
3 3 -5 80.19 3.7
-3 3 5 84.29 3.1
3 3 5 84.59 3.7
3 3 5 78.39 3.8
-3 -3 5 90.99 3.5
-3 -3 5 78.59 4.2
-3 -3 5 87.69 4.2
-3 3 -5 92.79 3.8
3 -3 -5 85.49 3.9
-3 3 -5 81.79 3.8
3 -3 -5 89.49 3.9
-3 3 -5 84.29 2.8
4 3 -5 24.3 2
4 -3 5 23.9 2.9
4 -3 5 27.5 2.6
-4 -3 -5 29.1 2.9
-4 -3 -5 23.8 1.6
-4 3 5 23.4 1.7
4 3 -5 28.2 2.4
-4 3 5 21 2.5
-4 -3 -5 22.8 2.4
-4 3 5 23.8 2.5
4 -3 -5 26.3 2.3
-4 -3 5 25.4 2.8
4 3 5 22.7 2.4
-4 3 -5 25.6 2.3
4 -3 -5 22.7 2.3
-4 3 -5 28.7 2.5
4 3 5 29.2 2.3
-4 -3 5 26 2.3
-4 -3 5 25.7 2.6
-4 3 -5 24.7 1.6
-5 -3 -5 19.9 2.9
5 -3 5 20.9 2.7
5 3 -5 20.2 2.3
5 -3 5 24.3 3.3
5 3 -5 19.9 2
-5 3 5 21.1 2.7
5 3 -5 22.2 2.4
-5 -3 -5 23.1 2.6
-5 3 5 21 2.6
-5 -3 5 21.5 2.6
-5 -3 5 20.3 2.4
5 -3 -5 24.3 2.5
5 3 5 22 2.6
-5 -3 5 22.2 2.9
-5 3 -5 22.4 2.5
-5 3 -5 21.8 2.3
5 -3 -5 18.6 2.4
5 3 5 17.5 2.1
-6 -3 -5 58.69 4.6
6 3 -5 53.49 3.3
6 3 -5 51.19 3.7
6 -3 5 50.69 4.8
-6 3 5 48.6 3.9
6 -3 5 53.39 4
6 3 -5 51.79 3.7
-6 -3 -5 49.7 3.8
-6 3 5 53.59 4.4
-6 3 -5 49.8 3.5
6 3 5 53.29 4
6 -3 -5 57.19 4.2
6 -3 -5 53.29 3.8
-6 -3 5 50.29 3.8
6 -3 -5 53.39 3.9
6 3 5 47.3 3.3
-6 3 -5 56.29 4.1
-6 -3 5 59.59 4.5
-7 3 5 106.59 5.9
7 -3 5 128.59 6.3
-7 3 5 112.99 6.6
7 3 -5 119.39 5.8
7 3 -5 117.79 5.8
-7 -3 -5 112.99 6.6
7 -3 5 112.99 7.3
-7 -3 -5 121.29 6.2
7 -3 -5 120.89 6.3
-7 -3 5 103.59 6.2
7 -3 -5 119.59 6
7 3 5 117.39 6.3
-7 3 -5 121.79 5.7
-7 -3 5 117.49 6
7 -3 -5 122.69 5.9
7 3 5 112.09 5.3
-7 3 -5 115.29 6.2
7 3 5 125.19 7.2
-8 3 5 66.99 5.7
8 -3 5 66.89 5.5
-8 3 5 56.49 4.7
8 3 -5 60.59 4.6
8 -3 5 63.09 5
-8 -3 -5 67.49 5.6
-8 -3 -5 66.09 4.9
8 3 -5 67.79 4.7
8 -3 5 56.89 6.1
8 -3 -5 62.99 4.8
8 -3 -5 65.59 5.1
-8 -3 5 65.29 5.3
8 3 5 71.09 5.4
-8 3 -5 63.89 4.5
-8 3 -5 68.69 5.2
8 3 5 60.09 5.8
-8 -3 5 67.29 5
0 -4 -5 -0.3 0.8
0 4 -5 -0.5 0.5
0 4 5 0.2 0.7
0 -4 -5 -0.5 0.8
0 4 -5 -0.3 0.6
0 4 5 0.7 0.8
0 -4 5 -0.5 1
0 4 5 0.1 0.6
0 -4 -5 -0.2 0.7
0 -4 5 0.8 0.9
0 4 -5 0.1 0.5
0 -4 5 0.7 0.9
1 -4 5 685.53 14.7
1 4 -5 678.83 13.9
-1 -4 -5 678.23 13
-1 -4 -5 679.73 14.6
1 4 -5 667.63 13.6
1 -4 5 684.63 14.7
1 -4 5 652.23 12.8
-1 -4 -5 668.43 14.2
-1 4 5 670.53 14.5
-1 4 5 671.93 14.3
-1 4 5 663.03 12.9
1 -4 -5 678.93 12.9
1 4 5 658.73 13.1
1 4 5 677.23 15.3
-1 4 -5 687.33 13.6
-1 -4 5 694.13 15
-1 4 -5 674.13 14
1 -4 -5 686.93 14.6
-1 -4 5 690.43 14.3
1 4 5 693.23 14.5
1 -4 -5 693.13 14
-2 -4 -5 21.3 2.3
2 -4 5 20.9 2.2
2 4 -5 17.8 1.8
-2 4 5 19.9 2.1
-2 4 5 21.7 1.4
2 -4 5 23.2 2.5
-2 4 5 19.4 2.1
-2 -4 -5 21.4 2.2
-2 -4 -5 21.3 1.4
2 4 -5 21.8 1.7
2 -4 -5 23 2.2
2 4 5 23.2 2.1
-2 4 -5 19.1 1.6
2 4 5 21.4 1.4
-2 -4 5 19.8 2.3
-2 -4 5 23.1 2.7
-2 -4 5 26.4 2.6
2 -4 -5 19.9 1.4
-2 4 -5 20.9 1.9
2 4 5 21.6 2
2 -4 -5 25.7 2.2
-2 4 -5 22.5 2
-3 4 5 221.08 7.4
-3 -4 -5 221.58 5.3
3 4 -5 226.08 6.8
3 4 -5 222.88 6.1
3 -4 5 228.08 7.7
-3 4 5 230.78 5.4
-3 4 5 242.28 7.4
3 4 -5 234.98 6.8
-3 -4 -5 214.68 7
-3 -4 -5 228.58 7.5
3 -4 5 226.58 7
-3 -4 5 228.78 6.6
-3 -4 5 213.88 7.4
-3 4 -5 236.98 5.9
-3 4 -5 226.58 7
-3 -4 5 215.98 7.4
-3 4 -5 222.68 6.9
3 4 5 235.08 7
3 4 5 234.78 7
3 -4 -5 231.68 7.1
3 -4 -5 224.68 7
4 4 -5 99.19 4.5
4 -4 5 113.39 4.9
4 4 -5 109.29 4.7
-4 4 5 109.29 5.3
4 -4 5 105.69 5.5
-4 4 5 112.29 5.1
-4 -4 -5 108.09 4.9
4 4 -5 108.09 4
-4 -4 -5 106.59 5.4
-4 4 -5 104.59 4.8
4 4 5 106.39 4.8
-4 4 -5 113.09 3.8
4 -4 -5 107.99 4.8
4 4 5 109.89 4.6
-4 -4 5 116.59 5.2
-4 -4 5 118.79 4.7
4 -4 -5 111.09 4.9
-4 4 -5 105.89 4.7
-4 -4 5 107.49 5.4
-5 4 5 77.09 4.4
5 4 -5 73.29 4.1
-5 -4 -5 78.99 5
-5 -4 -5 70.99 4.3
5 4 -5 75.19 4.1
5 -4 5 78.69 4.4
5 4 -5 72.09 3.4
-5 4 5 81.59 4.9
5 -4 5 76.29 5.1
-5 -4 5 75.09 4.1
5 4 5 72.49 4.3
5 -4 -5 73.29 4.3
5 -4 -5 71.09 4.2
-5 -4 5 66.89 4.6
-5 -4 5 74.89 4.5
-5 4 -5 74.59 4.2
5 4 5 68.79 3.9
-5 4 -5 71.69 4.3
6 4 -5 77.09 4.4
6 -4 5 82.29 4.8
-6 4 5 71.99 5.1
-6 -4 -5 72.19 4.6
6 4 -5 78.09 4.5
6 -4 5 81.09 5.7
-6 -4 -5 66.09 5.1
-6 4 5 71.39 4.6
-6 4 -5 76.59 4.8
6 -4 -5 70.39 4.5
-6 -4 5 66.89 4.6
6 -4 -5 64.59 4.4
6 4 5 68.89 4.1
-6 -4 5 84.29 5.4
6 4 5 85.29 5
-6 4 -5 76.19 4.4
-7 -4 -5 1.4 1.8
7 4 -5 1.7 1.3
7 4 -5 1 1.2
7 -4 5 0.3 1.8
7 -4 5 -0.3 1.8
7 -4 5 1.7 2.4
-7 4 5 -0.1 1.3
-7 -4 -5 -0.7 1.3
-7 4 5 2.4 1.9
7 -4 -5 -1.5 1.1
-7 4 -5 -0.5 1.2
7 4 5 2.6 1.5
7 -4 -5 1.1 1.5
-7 -4 5 1.6 1.6
7 -4 -5 0.4 1.5
-7 -4 5 2.6 2
-7 4 -5 1.2 1.3
7 4 5 -0.8 1.4
-8 4 5 63.19 5.5
8 4 -5 57.99 4.7
-8 4 5 54.39 6.7
-8 -4 -5 56.49 4.6
-8 -4 -5 55.79 5.3
8 4 -5 62.29 4.5
8 -4 5 56.19 6.1
8 -4 5 50.29 5.1
-8 -4 5 56.29 4.9
8 -4 -5 52.19 4.6
8 4 5 58.09 5.1
8 4 5 66.39 6
8 -4 -5 58.79 4.9
-8 4 -5 55.39 4.9
-8 4 -5 56.69 4.4
0 -5 5 0.7 1
0 5 5 0 0.7
0 -5 5 -0.2 0.6
0 5 5 0.1 0.6
0 5 -5 0.2 0.5
0 5 5 0.1 0.6
0 5 -5 0.3 0.7
0 -5 5 -0.6 1
0 -5 -5 0.1 0.9
0 -5 -5 0.8 0.9
0 -5 5 -1.4 0.8
0 5 -5 0.3 0.5
0 5 -5 -0.6 0.5
-1 5 5 20.8 2.1
1 -5 5 20.4 2.3
-1 5 5 17.2 1.3
-1 -5 -5 19.8 2.1
1 5 -5 18.8 1.7
-1 5 5 19.1 2
1 5 -5 18.4 1.8
-1 -5 -5 16.7 1.5
1 -5 5 16.3 2.3
-1 -5 -5 19.4 2.1
1 -5 5 17.4 1.8
1 -5 5 17.1 1.4
1 5 5 16.5 2
-1 -5 5 19.7 1.1
-1 5 -5 18 1.7
-1 -5 5 17.9 2.1
-1 5 -5 19 1.2
-1 -5 5 21.3 2.3
1 5 5 19.1 1.7
-1 5 -5 21.5 1.7
1 -5 -5 15.7 2
1 -5 -5 18.7 1.9
1 -5 -5 17 1.7
-1 5 -5 18.4 1.8
-1 -5 5 19.4 2.4
2 5 -5 6.7 1.3
2 -5 5 5.6 1.6
-2 -5 -5 6.3 1.7
2 5 -5 4.5 1.1
-2 -5 -5 5.3 1.5
-2 -5 -5 6.7 1
2 5 -5 8.1 1.3
-2 5 5 5.3 0.8
-2 5 5 6.7 1.5
2 -5 5 5.9 1.5
-2 5 5 6.9 1.6
2 5 5 8 1.6
-2 5 -5 4.5 1.2
2 -5 -5 5.7 1.4
2 -5 -5 6.1 1.2
-2 5 -5 7.6 1.5
-2 -5 5 1.4 1.2
-2 -5 5 3.4 1.8
2 -5 -5 4.3 1.5
2 5 5 6.3 1.1
-2 -5 5 5.3 1.6
2 5 5 8.3 1.6
-3 5 5 15.4 2.2
3 -5 5 16.7 2.7
3 -5 5 18.9 2.4
3 5 -5 17.4 1.9
-3 -5 -5 18 2.3
3 5 -5 16.3 1.6
-3 -5 -5 19.6 2.7
3 5 -5 17.9 2
-3 5 5 13.9 2.1
3 5 5 20 2.2
-3 5 -5 19.9 2.1
3 -5 -5 17.3 2.2
-3 5 -5 16.5 1.6
-3 -5 5 15.5 2.3
3 -5 -5 18.5 2.2
3 5 5 15.4 2
-3 5 -5 17.7 2
-3 -5 5 17 2.5
-4 5 5 62.29 4.1
-4 5 5 52.79 3.6
4 -5 5 58.09 3.8
4 5 -5 60.99 3.5
4 5 -5 56.99 2.9
-4 -5 -5 61.69 4.3
-4 -5 -5 54.29 3.7
4 -5 5 52.49 4.2
4 5 -5 63.79 3.6
-4 5 -5 58.79 3.7
4 5 5 55.69 3.6
-4 5 -5 61.29 2.9
4 5 5 63.29 3.6
-4 -5 5 58.29 4
-4 -5 5 61.89 4.2
-4 5 -5 60.49 3.6
4 -5 -5 54.79 3.6
4 -5 -5 59.19 3.8
5 -5 5 9 2.6
-5 -5 -5 8.9 2.1
-5 5 5 4.9 1.8
-5 -5 -5 8.4 2.3
5 -5 5 7.6 2.1
-5 5 5 5.8 1.7
5 5 -5 8.9 1.9
5 5 -5 11.4 2.1
5 -5 5 8.1 2
-5 -5 5 11.4 2.3
5 5 5 6.2 1.7
-5 5 -5 9.8 2.1
5 -5 -5 8.4 2
5 -5 -5 9.2 2.1
5 5 5 8.3 1.8
-5 -5 5 4.7 1.8
-5 5 -5 8.2 1.9
-6 -5 -5 54.19 4.7
6 -5 5 48.2 4.9
6 5 -5 50.59 3.8
-6 5 5 53.59 4
6 -5 5 44.4 4.2
6 5 -5 55.49 3.9
-6 5 5 51.89 4.4
6 -5 5 48.4 4
-6 -5 -5 43.2 3.8
6 -5 -5 51.69 4
6 5 5 47.8 4
-6 5 -5 46.8 3.8
-6 -5 5 42.9 4
6 -5 -5 42.6 3.8
-6 5 -5 56.19 4.2
-6 -5 5 47.4 4.3
6 5 5 52.19 3.7
-7 -5 -5 21.9 3.8
7 5 -5 24.1 3.2
-7 5 5 22.9 3.2
7 5 -5 18 2.8
-7 5 5 20.8 3.6
7 -5 5 16.1 3.3
7 -5 5 21.3 4.2
-7 -5 -5 24.9 3.2
-7 -5 5 17.4 3.2
7 5 5 21.8 2.9
-7 5 -5 21.9 2.9
7 -5 -5 19 3.2
7 5 5 18.1 3.2
7 -5 -5 20.9 3.3
-7 5 -5 17.3 3.1
-8 5 5 0.1 1.8
-8 -5 -5 0.2 1.9
8 5 -5 1 1.6
8 -5 5 -2.1 1.9
8 5 -5 2.3 1.9
-8 -5 -5 0.6 1.6
8 -5 5 1.9 2.8
8 -5 -5 -0.4 2
-8 5 -5 1.2 1.7
8 -5 -5 -0.1 1.6
8 5 5 1.3 2
-8 -5 5 0 1.9
8 5 5 0.3 1.5
-8 5 -5 1.7 1.8
8 -5 -5 -0.3 1.5
0 6 -5 -0.3 0.5
0 6 5 -0.5 0.5
0 -6 -5 -0.6 1
0 6 5 0.7 0.8
0 -6 5 0.7 0.7
0 6 -5 -0.1 0.6
0 -6 5 0.8 1.2
0 6 -5 0.1 0.7
0 -6 -5 -0.1 0.9
0 -6 -5 0.4 1
0 -6 5 1.7 1.4
0 6 5 -0.6 0.7
-1 -6 -5 108.09 3.6
1 -6 5 113.09 4.8
-1 6 5 104.29 3.2
1 6 -5 109.69 4
1 6 -5 102.69 4.3
-1 -6 -5 102.89 4.6
1 -6 5 104.29 5
-1 6 5 101.99 4.5
1 -6 5 117.59 4.2
-1 -6 -5 97.89 4.6
-1 6 5 109.99 4.5
-1 6 -5 110.49 4.3
1 -6 -5 110.29 4.3
1 -6 -5 106.89 4.1
1 6 5 108.29 4
1 6 5 112.79 4.1
-1 -6 5 105.49 4.3
-1 6 -5 104.59 3
-1 -6 5 108.99 4.9
-1 6 -5 105.69 4
1 6 5 106.09 4.6
-1 6 -5 103.59 4.2
-1 -6 5 99.49 4.8
1 -6 -5 108.79 4.8
2 6 -5 503.95 11.4
2 -6 5 517.05 12.2
-2 6 5 476.85 12.3
-2 6 5 500.05 12.2
-2 -6 -5 496.85 12.4
2 6 -5 487.25 11.9
2 -6 5 498.95 13.1
-2 -6 -5 512.75 10
2 -6 5 536.95 12.1
-2 -6 -5 503.85 12.8
2 6 -5 510.55 11
2 6 5 519.85 11.7
-2 -6 5 483.05 12.7
2 6 5 526.95 11
-2 -6 5 513.45 12.2
-2 6 -5 513.85 11.6
2 -6 -5 495.15 12.6
2 -6 -5 509.35 11.2
2 -6 -5 500.25 12
-2 6 -5 499.25 11.8
2 6 5 482.75 12.2
-2 -6 5 524.05 12.5
-2 6 -5 497.55 12
3 -6 5 3.6 1.7
3 6 -5 5.2 1.5
3 6 -5 6.4 1.5
3 6 -5 6.5 1.3
-3 -6 -5 4.2 1.5
-3 6 5 5.3 1.5
3 -6 5 4.9 1.8
3 -6 5 3.9 1.5
-3 6 5 7.5 1.8
-3 -6 -5 2.7 1.6
3 -6 -5 6.5 1.7
3 6 5 4.5 1.3
3 6 5 4.8 1.4
-3 6 -5 6.2 1.6
-3 6 -5 3.9 1.3
-3 -6 5 5.2 1.6
-3 -6 5 2.6 1.5
-3 -6 5 3.5 1.8
3 -6 -5 7.9 1.7
4 6 -5 18.7 2.3
4 -6 5 24.6 2.9
4 -6 5 21.7 3.2
-4 6 5 19.4 2.4
-4 6 5 21.1 2.7
4 6 -5 23 2.4
-4 -6 -5 17.8 2.6
-4 -6 -5 24.5 3.2
4 -6 5 19.6 2.8
4 6 5 21.8 2.6
-4 -6 5 24.2 3.1
-4 -6 5 21.5 2.9
4 -6 -5 22.4 2.8
-4 6 -5 22.5 2.1
4 -6 -5 23.6 2.8
4 6 5 24.2 2.6
-4 6 -5 19.3 2.4
-4 -6 5 21 2.8
-4 6 -5 25.7 2.7
5 -6 5 46.4 3.8
5 -6 5 38.9 3.9
-5 -6 -5 43.9 4.3
-5 6 5 46.4 3.7
5 6 -5 47.4 3.4
5 -6 5 32.5 4.3
5 6 -5 44.8 3.4
-5 -6 -5 39.5 3.5
-5 6 5 46.6 4
-5 -6 5 53.59 4.2
-5 6 -5 53.59 3.9
-5 -6 5 45.5 4.1
5 6 5 44.5 3.5
-5 -6 5 30.7 4.6
-5 6 -5 49.6 3.6
5 -6 -5 40.3 3.6
5 6 5 49.3 3.8
5 -6 -5 52.99 4
-6 6 5 50.79 4.5
6 -6 5 53.89 5.4
6 6 -5 54.69 4.1
-6 -6 -5 51.69 4.1
6 6 -5 53.69 3.9
-6 6 5 44.5 3.8
6 -6 5 43.6 4.4
-6 -6 -5 47.4 4.7
6 -6 -5 35.5 3.8
6 -6 -5 48.9 4.3
-6 6 -5 47.7 4.1
-6 6 -5 52.09 4.2
-6 -6 5 49.9 4.3
6 6 5 49.7 3.9
6 6 5 53.49 4.3
7 -6 5 46.8 5.6
7 -6 5 36.5 4.5
-7 -6 -5 40.2 3.8
-7 6 5 27.3 3.8
7 6 -5 39.2 3.6
-7 -6 -5 36.3 4.6
7 6 -5 41.9 4
-7 6 -5 29.6 3.8
7 6 5 38 4.1
7 -6 -5 43.8 4.3
7 6 5 47.1 4
-7 6 -5 39.7 3.7
7 -6 -5 28.4 3.8
-7 -6 5 38.5 4.3
0 -7 5 -1.3 1.2
0 -7 5 -0.2 0.8
0 7 -5 0.1 0.7
0 -7 -5 0.6 1.2
0 -7 -5 1.6 1
0 7 -5 0 0.6
0 -7 -5 0.6 1
0 7 5 -0.2 0.9
0 7 -5 0.3 0.8
0 -7 5 0.2 1.2
0 7 5 0 0.9
0 7 5 -0.2 0.6
1 -7 5 139.09 5.7
-1 -7 -5 138.89 5.7
-1 7 5 131.69 5.3
1 7 -5 144.89 4.9
1 -7 5 145.09 5
-1 -7 -5 127.89 5.6
-1 7 5 136.59 5.5
-1 -7 -5 143.19 4.3
1 7 -5 141.79 5.4
1 -7 5 130.19 6
1 -7 -5 142.49 5.3
1 7 5 140.79 5.6
1 7 5 144.99 5
-1 -7 5 142.79 5.9
1 7 5 145.49 4.8
-1 7 -5 141.69 5.3
-1 7 -5 135.59 5.1
-1 -7 5 131.49 5.8
1 -7 -5 136.89 5
1 -7 -5 122.89 5.5
2 7 -5 413.16 9.6
-2 7 5 416.16 11
2 -7 5 409.96 11.8
2 7 -5 402.36 10.7
-2 7 5 395.06 11
2 -7 5 443.26 10.8
2 7 -5 414.46 10.1
-2 -7 -5 396.06 11.5
2 -7 5 418.96 10.9
-2 -7 -5 414.66 11.2
-2 7 -5 413.56 10.5
-2 7 -5 402.26 10.6
-2 -7 5 404.06 11.2
2 -7 -5 411.96 11.4
2 -7 -5 424.06 10.8
2 7 5 416.46 9.8
-2 -7 5 416.16 11.6
2 -7 -5 446.36 11.3
-2 7 -5 417.06 10.4
2 7 5 408.26 11.1
3 7 -5 155.88 6
-3 7 5 158.38 6.2
3 -7 5 147.99 6.1
-3 7 5 149.69 6.4
-3 -7 -5 147.29 6.8
3 7 -5 158.18 6.8
3 -7 5 163.78 6.2
-3 -7 -5 168.88 6.5
3 -7 5 161.08 7.2
3 7 -5 152.68 5.7
3 7 5 158.88 5.9
-3 7 -5 166.98 6.2
3 -7 -5 150.58 6.4
-3 7 -5 155.08 5.5
3 7 5 146.19 6.1
-3 -7 5 158.48 6.7
3 -7 -5 152.78 6.2
-3 7 -5 155.08 6.1
-3 -7 5 152.38 6.3
-4 -7 -5 8.3 2.4
4 -7 5 9.7 2.6
-4 -7 -5 14.4 2.5
4 -7 5 14.3 2.6
-4 7 5 13.7 2.4
-4 7 5 17.1 2.7
4 7 -5 12.5 2.2
4 -7 5 12 2.4
4 7 -5 12.4 2.2
4 7 5 11.8 2.2
-4 -7 5 13.5 2.5
4 -7 -5 11.2 2.3
4 7 5 8.8 1.9
-4 7 -5 13 2.4
-4 7 -5 10.1 2.2
-4 -7 5 13.1 2.6
4 -7 -5 7.8 2.1
5 -7 5 8.6 2.8
5 -7 5 11.8 2.7
-5 7 5 12 2.5
5 7 -5 15 2.4
5 7 -5 13.2 2.5
-5 -7 -5 9.4 2.7
-5 7 5 11.5 2.2
-5 -7 -5 18.1 2.8
5 7 5 12.9 2.4
5 -7 -5 9.7 2.4
5 -7 -5 14.7 2.8
-5 -7 5 8.7 2.3
5 7 5 9.4 2.2
-5 7 -5 14.2 2.6
-5 7 -5 14.6 2.8
-5 -7 5 14.6 2.9
6 -7 5 86.69 5.9
-6 7 5 90.79 5.9
-6 -7 -5 100.29 6.6
-6 -7 -5 86.29 5.3
6 7 -5 96.99 5.4
6 7 -5 94.79 5.2
-6 7 5 88.79 6.6
6 -7 5 93.69 6.8
6 -7 -5 98.89 5.9
-6 -7 5 100.49 6
6 7 5 87.29 5.5
6 -7 -5 84.49 5.6
-6 7 -5 77.39 5.3
-6 -7 5 94.29 5.9
6 7 5 95.09 5.4
-6 7 -5 102.69 5.7
7 7 -5 12.8 2.5
-7 -7 -5 1.8 1.7
7 7 -5 10.9 2.6
7 -7 5 6.2 2.6
-7 7 5 13.4 3.1
-7 -7 -5 6 2.8
7 -7 5 12.4 3.7
-7 7 -5 9.9 2.7
7 -7 -5 10.4 2.9
7 7 5 11.3 2.6
-7 7 -5 11.9 2.7
7 7 5 9.7 2.6
-7 -7 5 15.8 3.4
7 -7 -5 13.9 3.2
0 8 5 0.4 1
0 8 -5 0.2 1.1
0 8 -5 0.2 0.7
0 8 5 0.2 1.1
0 -8 -5 -0.6 1.1
0 -8 5 4.3 1.8
0 -8 -5 1.8 1.4
0 8 -5 -0.2 0.8
0 -8 5 0.3 1.4
0 -8 -5 -0.3 0.9
-1 -8 -5 5.7 2
1 8 -5 7 1.4
1 -8 5 9.2 1.8
1 8 -5 6.1 1.4
-1 8 5 7.5 1.8
-1 8 5 6.9 1.8
1 -8 5 11.4 2.5
-1 -8 -5 2.4 1.5
1 -8 5 9.9 2.1
1 8 -5 5.1 1.5
1 -8 -5 7.5 1.9
1 8 5 7.2 1.6
1 -8 -5 4.7 2.2
-1 -8 5 6.1 2
-1 8 -5 7.8 1.7
1 -8 -5 6.5 1.9
1 8 5 7.9 1.5
-1 -8 5 6.6 2.2
1 8 5 7.2 1.9
-1 8 -5 8 1.8
-2 8 5 136.49 5.9
2 8 -5 150.88 6
2 8 -5 148.99 5.1
-2 -8 -5 148.79 6.8
2 -8 5 146.79 7.4
2 -8 5 160.08 6.3
2 -8 5 148.69 6.9
-2 8 5 151.38 6.3
-2 -8 -5 157.58 6.4
2 8 -5 150.68 5.3
-2 8 -5 149.79 5.9
-2 8 -5 149.69 5.7
2 8 5 154.48 6.3
2 -8 -5 150.88 6.5
2 -8 -5 151.58 5.9
2 8 5 146.49 5.3
-2 -8 5 156.38 6.7
-2 -8 5 143.39 6.5
-3 8 5 291.07 9.1
-3 -8 -5 295.87 9.4
3 8 -5 309.77 8.8
-3 -8 -5 299.17 10.4
3 -8 5 319.57 10.8
3 -8 5 299.47 9.4
-3 8 5 278.77 9.6
3 -8 5 288.37 9.1
3 8 -5 300.37 9.2
3 -8 -5 294.57 9.3
-3 8 -5 303.57 9.3
-3 -8 5 280.37 9.6
-3 -8 5 293.57 9.7
3 -8 -5 288.17 9.7
3 8 5 310.67 9.6
3 8 5 278.37 8.6
-3 8 -5 306.37 8.7
4 -8 5 6.1 2.3
-4 8 5 4.6 2
4 8 -5 10.7 2.2
-4 -8 -5 9.7 2.8
4 -8 5 11.9 3.2
-4 -8 -5 11.8 2.4
-4 8 5 8.4 2
4 8 -5 12 2.1
-4 8 -5 12.1 2
4 8 5 12.2 2.4
4 -8 -5 9.4 2.2
-4 -8 5 14 2.9
-4 8 -5 11 2.2
-4 -8 5 9.3 2.4
4 -8 -5 7.7 2.2
-4 8 -5 9.3 2.1
4 8 5 11.7 2.3
-5 -8 -5 48.7 4.1
-5 8 5 48.9 4
5 -8 5 36.7 4.2
5 8 -5 47.5 3.8
-5 -8 -5 54.79 5.2
-5 8 5 44.1 4.2
5 -8 5 37.4 5
5 8 -5 43.5 3.7
-5 8 -5 48.9 4.2
5 8 5 47.5 4
5 -8 -5 40.4 4.1
-5 -8 5 45.8 4.4
-5 -8 5 54.49 4.5
5 8 5 56.59 4.2
5 -8 -5 38.3 3.9
-5 8 -5 41.2 3.8
6 8 -5 34.4 3.6
6 8 -5 29.4 3.4
-6 -8 -5 35.7 4.7
6 -8 5 37.6 5.3
-6 -8 -5 26.3 3.5
-6 8 5 29.3 4
6 -8 5 31 4.2
6 8 5 29.9 3.7
6 8 5 29.5 3.6
-6 8 -5 26 3.4
6 -8 -5 32.5 4
-6 -8 5 34.6 4.2
-6 -8 5 34.3 4.3
-6 8 -5 32 3.8
6 -8 -5 23.3 3.7
-7 -8 -5 1.1 2.2
7 -8 5 3.7 3.2
7 8 -5 0.4 1.6
7 -8 5 1.7 2.3
-7 -8 -5 1.8 1.9
7 8 -5 2.5 1.7
-7 8 5 -0.2 1.9
7 8 5 1.6 2
-7 -8 5 0.5 2.1
-7 8 -5 0 1.6
-7 8 -5 2.1 2
7 -8 -5 -1.7 1.7
7 8 5 0 1.6
7 -8 -5 -0.2 2
0 -9 -5 -0.1 1.7
0 -9 -5 -2 1.2
0 -9 -5 -0.8 1.4
0 9 5 2.6 1.6
0 -9 5 -0.2 1.6
0 9 -5 0 1.2
0 9 5 0.9 1.1
0 -9 5 -0.2 1.6
0 9 -5 -0.2 0.8
-1 9 5 6.3 1.8
1 9 -5 3.5 1.2
1 -9 5 3.1 1.6
1 9 -5 3.3 1.2
-1 -9 -5 4 1.9
1 -9 5 6 2.2
-1 9 5 4.8 1.6
1 9 -5 4.4 1.6
-1 -9 -5 3.7 1.8
1 -9 5 4.8 2.3
-1 -9 5 3.5 2
1 -9 -5 5.6 1.9
-1 -9 5 1.2 1.8
1 -9 -5 4.5 1.8
-1 9 -5 4 1.5
1 9 5 4.4 1.5
-1 9 -5 4.8 1.6
1 9 5 5 1.9
-2 9 5 85.09 4.9
-2 9 5 75.79 4.5
-2 -9 -5 84.09 5.4
-2 -9 -5 82.79 5
2 -9 5 91.99 6
2 -9 5 94.49 6.1
2 9 -5 89.29 4.7
2 9 -5 87.19 4.1
-2 -9 5 74.39 5.1
-2 9 -5 85.69 4.6
-2 -9 5 85.59 5.3
2 9 5 91.89 4.3
2 9 5 88.29 4.3
-2 9 -5 91.99 4.7
2 -9 -5 90.09 5.3
2 -9 -5 86.19 4.6
2 9 5 82.39 4.9
3 -9 5 31.7 4.4
-3 -9 -5 36.7 3.6
3 -9 5 38.3 3.6
-3 9 5 31 3.2
-3 9 5 28.9 3.3
3 9 -5 30 2.9
-3 -9 -5 29.2 4
3 9 -5 33.6 3.2
-3 -9 5 25.8 3.7
-3 9 -5 35.4 3
3 9 5 35.2 3.1
3 -9 -5 30.4 3.4
3 9 5 32.3 3.6
-3 -9 5 30.1 3.8
3 -9 -5 30.2 3.6
-3 9 -5 25.6 3
-4 9 5 29.9 3.2
-4 9 5 28.3 3.4
4 -9 5 32 3.7
4 9 -5 31 3.1
-4 -9 -5 29.5 3.4
4 9 -5 27.9 3.1
4 -9 5 23.3 4.1
-4 -9 -5 22.5 4
-4 9 -5 27.1 2.9
-4 -9 5 28.2 3.9
-4 -9 5 28.6 3.8
4 -9 -5 33.1 3.6
-4 9 -5 29.2 3.2
4 9 5 26.6 3.1
4 9 5 30.7 3.5
4 -9 -5 30.4 3.8
5 -9 5 24.6 4.4
5 9 -5 16.7 2.8
-5 9 5 19.8 3.3
5 -9 5 23.8 3.9
-5 -9 -5 17.8 3.8
-5 -9 -5 18.9 3.1
5 9 -5 22.1 3
5 9 5 20.6 3.1
5 -9 -5 17.8 3.3
-5 9 -5 20.4 2.8
5 -9 -5 26.4 3.6
-5 9 -5 19.9 3.4
-5 -9 5 22.4 3.7
-5 -9 5 29.8 4.2
5 9 5 21.7 3.2
6 9 -5 11.3 2.6
-6 -9 -5 8 2.8
-6 9 5 7.5 2.7
-6 -9 -5 13.2 2.9
6 9 -5 13.6 2.7
6 -9 5 16.1 4.2
6 -9 5 11.2 3.2
6 -9 -5 13.1 3
6 -9 -5 8.5 2.8
6 9 5 11.2 2.7
6 9 5 9.5 2.5
-6 9 -5 12.6 2.7
-6 -9 5 14.1 3.3
-6 -9 5 7 2.8
0 -10 5 2.2 2
0 -10 -5 -0.2 1.8
0 10 5 0.4 1.5
0 10 -5 0.3 1.3
0 -10 -5 1.3 1.6
0 -10 5 1.3 2.1
0 10 5 -0.3 1.2
0 10 -5 0.7 1
-1 10 5 36.6 3.5
-1 -10 -5 40.9 3.9
-1 10 5 38 3.5
-1 -10 -5 36.6 4.1
1 10 -5 40.3 3.6
1 -10 5 38.1 4.5
1 -10 -5 45 4.2
1 -10 -5 40.4 3.9
1 10 5 53.79 4.2
-1 10 -5 43.5 3.6
-1 10 -5 38.1 3.1
-1 -10 5 39.4 4.5
-1 -10 5 38.1 4.1
1 10 5 38.8 3.3
-2 -10 -5 -0.9 1.8
-2 10 5 0.3 1.2
2 10 -5 1 1.3
-2 10 5 0.1 1.3
2 10 -5 0.7 1
-2 -10 -5 0.3 1.6
2 -10 5 1.8 2.2
-2 10 -5 -1.1 1.2
2 10 5 1.7 1.2
-2 10 -5 1.9 1.4
2 -10 -5 -1.1 1.4
2 10 5 1.5 1.7
-2 -10 5 0.2 2.1
2 -10 -5 1.3 1.4
-2 -10 5 -1 1.8
3 10 -5 5.3 1.7
3 -10 5 1.5 2.7
-3 -10 -5 6.9 2.2
-3 10 5 1.4 1.4
3 -10 5 5.5 2.5
-3 10 5 3.4 1.8
-3 -10 -5 7.2 2.7
3 10 -5 4.8 1.7
-3 10 -5 4.3 1.7
-3 -10 5 4.6 2.4
-3 10 -5 2.5 1.5
3 -10 -5 0.9 1.8
3 10 5 2.1 1.7
-3 -10 5 3.4 2.3
3 -10 -5 1 1.6
-4 -10 -5 39.5 4
4 -10 5 36.7 5.1
4 10 -5 36.6 3.5
-4 10 5 48 4.4
4 -10 5 42 4.3
4 10 -5 39.2 3.7
-4 -10 -5 46.2 5.1
4 -10 -5 46.5 4.5
-4 10 -5 41.4 3.6
4 10 5 44.6 4.2
4 -10 -5 35.2 3.9
-4 10 -5 41.4 3.9
-4 -10 5 43.4 4.6
-4 -10 5 43.2 4.7
4 10 5 41.9 3.7
5 10 -5 40 3.9
5 -10 5 43.9 4.7
5 -10 5 35.8 5.5
-5 10 5 32.7 4.1
-5 -10 -5 37.5 4.1
-5 -10 -5 37.9 5.1
5 10 -5 44 4
5 10 5 38.5 3.9
-5 10 -5 49.3 4.4
-5 -10 5 49.8 5.2
5 -10 -5 45.2 4.8
-5 10 -5 37.9 3.6
-5 -10 5 37.8 4.7
5 -10 -5 46 4.6
5 10 5 42.2 4.3
0 11 5 0.4 1.3
0 11 -5 -0.4 1.2
0 -11 5 -1.7 2.3
0 -11 -5 -0.8 1.9
0 -11 -5 2.2 1.9
0 11 5 0.2 1.7
-1 11 5 38.5 3.7
1 11 -5 44.4 4
-1 11 5 40 3.7
1 -11 5 39.5 4.9
-1 -11 -5 41 4.2
-1 -11 -5 38.2 4.5
-1 -11 5 41.5 4.4
1 11 5 35.8 3.9
1 -11 -5 39.2 6.4
-1 11 -5 44.7 3.8
-1 -11 5 33.4 4.6
1 -11 -5 43.3 4.3
1 11 5 37.8 3.5
-1 11 -5 43.5 3.5
-2 -11 -5 37.4 4
2 -11 5 39.5 5.1
-2 -11 -5 38.3 4.7
-2 11 5 36.1 3.6
2 11 -5 38.2 3.7
-2 11 5 36.8 3.9
-2 -11 5 28.6 3.9
-2 11 -5 44.9 3.8
-2 11 -5 40.2 3.6
2 11 5 38.4 3.9
2 11 5 40.3 5.3
-2 -11 5 37.1 4.8
2 -11 -5 36.1 3.5
2 -11 -5 38.8 4.1
3 -11 5 23.5 3.6
-3 -11 -5 31.7 3.8
-3 11 5 38.4 4.1
-3 11 5 29.8 3.4
3 11 -5 38.5 3.8
3 11 -5 40.4 3.4
3 -11 5 38.7 5.3
-3 -11 -5 39.7 5.2
-3 -11 5 40.7 4.5
3 -11 -5 27.2 3.7
-3 11 -5 33.2 3.5
-3 -11 5 30.2 4.5
3 -11 -5 37 4.4
3 11 5 35.3 4.1
-3 11 -5 32.1 3.3
4 11 -5 6.5 2.1
4 -11 5 7.6 3.8
-4 -11 -5 5.3 2.4
-4 11 5 2.7 2
4 11 -5 5.5 2
-4 -11 -5 1.5 2.8
4 -11 5 6.8 2.6
-4 -11 5 6.1 2.7
4 -11 -5 6.8 2.7
-4 11 -5 7.7 2
-4 11 -5 5.2 2.1
4 11 5 5.4 2.1
4 -11 -5 8.8 2.4
-4 -11 5 6.8 2.6
4 11 5 6.3 2.5
5 11 -5 29.4 3.7
5 -11 5 25.2 4.2
-5 -11 -5 33.1 5.4
5 11 -5 24.7 3.4
-5 11 5 30 4.1
5 -11 5 27.3 5
5 11 5 29.5 3.7
5 11 5 21.8 3.7
-5 -11 5 45 5
-5 11 -5 25.7 3.6
-5 -11 5 22.4 4.1
5 -11 -5 23.1 4.2
5 -11 -5 37 4.3
-5 11 -5 25.2 3.3
0 -12 -5 -0.4 2.3
0 -12 5 1.4 2.7
0 12 -5 -0.4 1.6
0 12 5 0 1.7
0 12 5 0.3 1.4
0 -12 -5 0.7 1.9
-1 -12 -5 15 3.2
-1 12 5 4.8 2
1 12 -5 9.2 2.5
-1 12 5 9.8 2.5
-1 -12 -5 17.3 3.7
1 -12 5 15.4 3.9
-1 -12 5 11.9 3.4
-1 12 -5 14.2 2.8
1 12 5 17.6 3.3
1 12 5 10.5 2.4
1 -12 -5 13.1 3.1
-1 12 -5 13 3.1
-2 12 5 14.3 3.1
2 12 -5 16 3
-2 -12 -5 13.9 3.6
-2 -12 -5 20.3 3.6
-2 12 5 16 2.9
2 -12 5 23.2 4.5
2 -12 -5 16 3.3
-2 -12 5 9.2 3.4
2 12 5 18.7 3.3
-2 -12 5 17.5 3.3
-2 12 -5 17.5 2.8
-2 12 -5 18.3 3
3 12 -5 11.6 2.9
3 -12 5 8.7 3.6
3 12 -5 8.2 2.3
-3 -12 -5 8.2 3.5
-3 12 5 8 2.6
-3 -12 -5 7.1 2.6
3 -12 -5 7.1 2.5
3 -12 -5 11 3.1
-3 12 -5 6 2.3
-3 12 -5 5.7 2
3 12 5 6.1 2.5
-3 -12 5 5.7 2.8
-3 -12 5 9.9 3.3
4 -12 5 2 2.4
-4 -12 -5 2.8 3.1
-4 12 5 4.6 2.4
4 12 -5 3.1 1.7
-4 -12 -5 6.7 2.6
4 -12 5 10.1 3.9
4 12 -5 2.3 1.8
4 -12 -5 3.6 2.6
-4 -12 5 3.9 3
-4 12 -5 1.9 1.7
-4 -12 5 3 2.9
-4 12 -5 2.3 1.9
4 -12 -5 3.1 2.3
4 12 5 1.5 2.1
0 -13 -5 -1.6 2
0 -13 -5 1 3
0 13 5 0.2 1.6
0 13 5 -0.9 1.8
0 13 -5 -1.3 1.5
0 -13 5 3.6 3.2
-1 13 5 1 2.1
-1 13 5 2.4 2
-1 -13 -5 1.6 2.2
1 13 -5 3.6 2.1
-1 -13 -5 7.4 3.1
1 -13 5 1 3.1
1 -13 -5 2.7 2.2
1 13 5 3.2 2.3
1 13 5 2.6 1.9
-1 13 -5 1.8 1.9
-1 -13 5 0.1 2.7
-2 13 5 1.7 2.1
2 -13 5 5.2 3.4
2 13 -5 3.4 2.3
-2 -13 -5 1.7 2.2
-2 -13 -5 0.2 2.8
2 13 5 1.3 2.1
-2 13 -5 2.5 1.8
-2 -13 5 5.2 3.2
-2 13 -5 4.2 2.1
2 -13 -5 3.7 2.6
0 0 6 574.24 12.7
0 0 -6 602.84 12.2
0 0 6 587.34 12.5
0 0 -6 577.24 11.5
0 0 -6 588.64 12
0 0 6 561.94 11.2
-1 0 -6 1.8 0.8
1 0 -6 1.1 0.8
1 0 6 4.3 1.3
-1 0 -6 2.7 0.6
1 0 -6 2.5 0.8
1 0 6 3.3 1
1 0 6 4.4 1.1
-1 0 6 3.4 1.2
1 0 -6 1.3 0.8
-1 0 6 2.6 1.1
-1 0 -6 2.4 0.9
-2 0 6 605.14 13.2
-2 0 -6 618.34 12.6
-2 0 -6 577.04 13.1
2 0 6 589.94 13.4
-2 0 6 600.64 13.9
2 0 -6 601.34 12
2 0 6 621.14 12.5
2 0 6 589.24 13.3
-2 0 6 617.14 13.8
2 0 -6 600.14 12.9
-2 0 -6 614.64 13
2 0 -6 608.14 13
-3 0 6 0.2 1
3 0 6 -0.6 1
3 0 -6 -0.2 0.7
3 0 -6 0.3 0.5
-3 0 -6 0.1 0.7
-3 0 -6 -0.3 0.8
3 0 6 -0.2 0.6
3 0 6 -0.7 0.8
-3 0 6 0 1
3 0 -6 0.5 0.9
-3 0 6 0 0.8
-3 0 -6 -0.3 0.8
4 0 6 121.49 5.3
4 0 6 133.49 4.3
-4 0 6 120.19 5.6
4 0 -6 134.49 5.4
4 0 -6 123.79 4.9
4 0 -6 134.79 4.3
-4 0 -6 137.99 4.7
-4 0 -6 118.99 5.3
4 0 6 132.09 5.9
-4 0 6 122.39 5.9
-4 0 -6 123.29 5.2
-4 0 6 136.19 5.2
-5 0 -6 -1.2 1
5 0 6 -1.1 1.1
-5 0 -6 -0.5 1
5 0 -6 0.6 1
5 0 -6 1.5 1.2
-5 0 6 -0.3 1.1
-5 0 6 -0.6 0.9
-5 0 6 -0.2 1.2
5 0 6 -0.4 1.3
-5 0 -6 0 0.8
6 0 6 201.58 8.8
-6 0 6 211.08 8.5
6 0 -6 211.28 7.2
-6 0 6 193.58 7
-6 0 -6 206.88 7.9
6 0 -6 210.48 7.8
-6 0 -6 217.88 8.4
6 0 6 196.38 8
-7 0 -6 0.2 1.5
7 0 -6 1.6 1.4
-7 0 6 -0.5 1.4
-7 0 -6 -0.6 1.1
7 0 -6 -0.2 1
7 0 6 -1.1 1.5
7 0 6 -1.2 1.9
-7 0 6 -0.2 1.2
-8 0 -6 40 4.1
8 0 6 35.8 5.1
8 0 -6 34.7 3.9
-8 0 6 29.8 3.9
8 0 6 35.1 4.3
8 0 -6 37 3.5
8 0 -6 40.9 3.8
0 -1 -6 162.18 4.9
0 -1 6 159.08 4.5
0 1 6 162.98 5.2
0 1 -6 160.98 4.9
0 -1 6 172.38 5.2
0 1 -6 158.58 4.6
0 -1 -6 164.68 5
0 -1 -6 165.28 4.5
0 1 6 164.98 4.3
0 -1 6 160.98 5.4
0 1 6 162.48 5
0 1 6 165.78 5.3
1 1 -6 457.25 9.9
1 -1 6 437.46 10.6
1 -1 6 443.66 9.7
1 1 -6 434.06 9.1
-1 -1 -6 443.26 9.7
-1 1 6 439.56 10.1
-1 1 6 440.06 10.5
1 1 -6 438.66 10
-1 1 6 455.75 10.6
-1 -1 -6 450.85 9.6
-1 -1 -6 446.76 8.7
-1 -1 -6 451.85 10.3
-1 1 -6 429.96 9.8
-1 -1 6 450.65 10.6
1 -1 -6 442.36 9.9
-1 -1 6 447.26 8.8
1 1 6 426.36 9.8
-1 -1 6 448.96 10.6
-1 1 -6 445.16 8.8
1 1 6 450.75 10.4
1 1 6 443.16 10
1 -1 -6 448.26 10
-1 1 -6 440.26 9.9
1 -1 -6 455.05 9.9
2 1 -6 142.89 3.9
2 1 -6 150.68 4.9
-2 1 6 145.69 5.5
-2 -1 -6 148.39 4.5
2 -1 6 148.59 5.3
-2 -1 -6 147.89 5
2 -1 6 143.79 4.3
2 -1 6 143.79 5.2
2 1 -6 154.48 4.9
-2 1 6 144.79 5.4
-2 -1 -6 149.69 5.2
2 1 6 140.69 5.2
-2 1 -6 141.19 3.4
2 -1 -6 136.49 4.8
-2 1 -6 153.28 4.8
-2 -1 6 141.09 5.4
2 -1 -6 149.19 4.6
-2 -1 6 138.19 5.1
2 1 6 149.49 5.2
-2 1 -6 145.59 5
2 1 6 139.29 4.6
2 -1 -6 144.49 5
-3 1 6 20.9 2.3
-3 -1 -6 18.7 2.1
-3 1 6 17.4 2.3
3 -1 6 15.6 2.3
3 1 -6 20.2 2
-3 -1 -6 19.4 2.1
3 -1 6 19.6 2.2
3 1 -6 16.6 1.8
3 -1 6 17 1.5
3 1 -6 16 1.3
3 -1 -6 18.1 1.9
3 -1 -6 20.1 1.7
-3 1 -6 15.5 1.7
-3 -1 6 19.6 2.4
-3 1 -6 17.5 2
3 -1 -6 19.8 2.1
3 1 6 15 2
-3 -1 6 15.6 2.1
3 1 6 19.1 1.8
3 1 6 16.1 2.2
4 1 -6 294.07 8
4 -1 6 292.87 8.8
-4 -1 -6 284.27 8.6
-4 -1 -6 290.87 8.8
4 -1 6 286.27 9.2
-4 1 6 294.77 9.2
-4 1 6 275.97 9.3
4 1 -6 306.17 8.6
4 -1 -6 285.77 8.2
4 -1 -6 311.47 7.7
-4 -1 6 276.77 9.1
4 1 6 301.07 7.7
-4 1 -6 275.37 8.5
4 1 6 286.67 8.7
-4 1 -6 282.47 7.8
-4 -1 6 295.07 8.6
4 -1 -6 283.07 8.6
4 1 6 278.67 9.1
-5 -1 -6 3.8 1.5
5 1 -6 4.2 1.4
-5 -1 -6 3 1.3
5 1 -6 1.9 1.2
5 -1 6 1.3 1.4
5 -1 6 2.3 1.7
-5 1 6 1.6 1.4
-5 1 6 3.7 1.7
-5 -1 -6 5.1 1.3
5 1 6 5.3 1.3
-5 -1 6 3.8 1.4
-5 1 -6 3.3 1.2
-5 1 -6 2 1.2
5 1 6 2.9 1.5
5 -1 -6 2.4 1.1
5 -1 -6 0.8 1.1
5 -1 -6 2.2 1.2
-5 -1 6 0.8 1.3
5 1 6 6.5 2.1
-6 -1 -6 163.88 8.5
-6 1 6 172.38 7.4
6 1 -6 162.98 6.8
6 -1 6 166.18 7.1
-6 -1 -6 162.58 7
6 -1 6 168.78 8
-6 1 6 158.98 7.7
6 1 -6 156.78 6.1
-6 -1 -6 158.28 7.2
-6 -1 6 161.78 7.4
-6 -1 6 171.38 6.6
6 -1 -6 160.48 6.4
6 1 6 166.98 7.2
6 -1 -6 176.88 7.2
6 1 6 155.18 7.7
-6 1 -6 167.78 6.2
-6 1 -6 161.38 6.9
7 1 -6 11.4 2.3
7 1 -6 15.8 2.7
7 1 -6 15.1 2.5
-7 -1 -6 10.4 2.4
-7 1 6 12.5 2.9
7 -1 6 18.2 3.3
7 -1 6 13 3.5
-7 -1 -6 10.6 2.7
-7 1 6 15.3 3
-7 1 -6 15.8 2.8
-7 1 -6 14.6 2.4
7 1 6 11.1 3.2
7 -1 -6 14 2.5
-7 -1 6 15.4 2.6
7 1 6 12.6 2.7
7 -1 -6 11.5 2.4
-7 -1 6 12.7 2.9
8 -1 6 19.5 3.6
-8 -1 -6 23.1 3.9
-8 -1 -6 24.4 3.4
8 -1 6 16.7 3.9
8 1 -6 26.8 3.4
-8 1 6 22.2 3.6
8 1 -6 13.7 2.7
8 1 6 19 3.5
8 1 6 24 4.7
8 -1 -6 22.7 3.3
-8 -1 6 18.7 3.3
-8 -1 6 20.1 3.2
8 -1 -6 21.5 3.1
-8 1 -6 24.6 3.5
0 2 -6 967.3 17.9
0 -2 6 953 18.6
0 -2 -6 974.5 18.4
0 2 6 994.3 19.2
0 -2 -6 924.31 17.4
0 -2 6 963 19.5
0 -2 6 975.4 18.3
0 -2 -6 948.11 18.8
0 2 6 971.4 18.7
0 2 6 963.4 18.5
0 2 -6 960.5 18.6
-1 -2 -6 488.15 10.5
1 2 -6 488.55 10.6
-1 -2 -6 467.45 11.1
1 -2 6 485.05 10.3
1 2 -6 487.25 10.7
-1 2 6 504.65 11.4
-1 -2 -6 486.95 10.3
1 2 -6 482.05 9.6
-1 2 6 493.45 11.5
1 -2 6 480.95 11.5
-1 -2 6 488.45 11.3
1 -2 -6 486.95 10.8
1 2 6 471.35 9.9
-1 -2 6 484.45 10
-1 2 -6 489.05 10.8
1 2 6 482.15 11
1 -2 -6 515.75 11
1 2 6 494.55 11.1
-1 2 -6 486.05 10.6
-1 2 -6 499.05 9.9
-1 -2 6 496.15 11.6
-2 2 6 58.59 2.8
2 -2 6 59.29 2.5
-2 -2 -6 54.09 3
2 -2 6 60.59 3.4
2 2 -6 55.59 2.8
2 2 -6 58.09 3
-2 2 6 65.29 3.6
2 2 -6 59.69 2
-2 -2 -6 57.99 3.2
2 -2 6 58.69 3.4
-2 -2 6 59.49 2.4
2 -2 -6 58.39 3
2 2 6 62.59 3.1
2 -2 -6 56.79 3.1
-2 2 -6 59.09 3
-2 2 -6 58.49 2.1
-2 -2 6 63.99 3.5
-2 2 -6 63.49 3.1
-2 -2 6 56.39 3.4
2 2 6 55.29 3.2
3 -2 6 30.8 1.8
-3 -2 -6 36.8 2.8
3 2 -6 31.6 2.2
-3 2 6 31.7 2.8
3 -2 6 27.8 2.8
3 -2 6 32.5 2.7
3 2 -6 29.4 2.4
-3 2 6 30.6 2.2
-3 -2 -6 33.3 2
-3 -2 -6 30.4 2.6
-3 2 6 32.5 2.8
-3 2 -6 31.5 2.3
3 -2 -6 36.2 2.4
-3 2 -6 33.3 2.5
3 2 6 29.5 2.6
-3 -2 6 31.1 2.7
-3 -2 6 29.7 2.9
-3 -2 6 32.1 1.9
-3 2 -6 30.6 1.4
3 2 6 33.2 2.3
3 -2 -6 25 2.2
-4 2 6 74.69 4.5
-4 2 6 72.39 4.3
-4 -2 -6 74.69 4.1
4 -2 6 81.69 4.3
-4 2 6 77.69 3.5
4 -2 6 72.39 4.5
4 2 -6 68.89 3.5
4 2 -6 73.19 3.9
-4 -2 -6 76.19 4.3
-4 -2 -6 77.29 3.2
4 2 6 76.89 4.2
4 2 6 78.49 3.6
-4 2 -6 73.59 3.7
4 2 6 69.49 4.4
-4 2 -6 70.99 4
4 -2 -6 71.19 3.8
-4 -2 6 73.49 4.4
-4 -2 6 67.39 4
4 -2 -6 70.39 3.5
-5 -2 -6 54.79 3.8
-5 2 6 59.09 3.2
5 -2 6 53.39 3.9
5 -2 6 59.19 4.4
-5 -2 -6 55.19 4
5 2 -6 52.59 3.2
-5 2 6 50.49 3.9
-5 2 6 58.69 4.4
-5 -2 -6 57.89 3
5 2 -6 58.39 3.8
-5 -2 6 51.29 4.1
-5 2 -6 58.29 3.8
-5 -2 6 49.99 3.6
5 -2 -6 63.19 3.8
5 2 6 53.39 3.9
5 2 6 47.1 4.1
5 -2 -6 55.69 3.3
5 -2 -6 47.7 3.7
5 2 6 59.79 3.4
-5 2 -6 55.49 3.4
6 -2 6 50.99 4.6
6 2 -6 36.7 2.9
-6 -2 -6 39.9 4
-6 -2 -6 40.1 3.6
6 -2 6 34 3.6
-6 2 6 45.6 4.3
6 2 -6 37.2 3.4
-6 2 6 48.3 4.1
6 -2 -6 45.1 3.8
6 2 6 43.8 3.1
-6 -2 6 41.5 3.5
-6 -2 6 51.89 4.4
6 2 6 41.5 3.8
6 -2 -6 43.3 3.5
-6 2 -6 40.1 3.6
-6 2 -6 44.7 3.3
6 2 6 47.1 4.5
-7 -2 -6 20.2 3
7 2 -6 21.3 2.9
7 2 -6 16.8 2.7
-7 2 6 15.5 3.3
7 -2 6 23.7 3.9
-7 -2 -6 26.8 3.6
-7 2 6 14.6 2.9
7 -2 6 22.5 3.4
7 2 6 16.8 3.5
7 -2 -6 18.1 2.8
-7 2 -6 20.1 3
-7 -2 6 13.4 2.8
7 -2 -6 18 2.9
-7 2 -6 12.8 2.4
-7 -2 6 20.3 3
7 2 6 23.5 3.5
8 2 -6 -1 1.3
-8 -2 -6 3.1 1.7
-8 2 6 1 1.7
8 -2 6 7 3
8 -2 6 3.5 2.2
-8 2 6 3.7 2.4
8 2 -6 -0.8 1.3
-8 -2 -6 0.1 1.7
-8 2 -6 2 1.9
8 2 6 4.2 2.9
8 -2 -6 1.5 1.7
-8 2 -6 2.6 1.6
-8 -2 6 2.9 2
8 -2 -6 -0.4 1.4
-8 -2 6 4.6 2
8 2 6 0.5 2
0 3 6 163.18 5
0 -3 -6 156.68 5.4
0 3 -6 161.08 4.4
0 3 -6 156.08 5
0 -3 6 163.98 5.8
0 3 -6 165.08 4.8
0 -3 6 164.98 5.1
0 -3 -6 165.18 5
0 3 6 164.08 5.5
0 -3 -6 154.78 4.4
1 -3 6 23 2.2
-1 3 6 20.4 2.1
-1 -3 -6 23.7 2
-1 -3 -6 22.9 2.2
1 3 -6 21.8 1.3
-1 3 6 18.7 2
1 -3 6 30.1 2.6
1 -3 6 22.3 1.8
1 3 -6 24.5 1.9
-1 3 6 20.9 1.7
1 3 -6 21.2 1.8
1 -3 -6 21.7 1.9
1 -3 -6 22.3 2.1
1 3 6 25.5 2.1
-1 -3 6 22.6 2.3
-1 3 -6 22.2 1.6
1 3 6 22.1 1.6
-1 -3 6 20.2 1.8
1 3 6 21.7 2
-1 3 -6 22.9 1.9
-1 3 -6 21.5 1.7
-1 -3 6 19.7 2.3
2 -3 6 35.7 2.8
2 -3 6 31.5 2.7
-2 -3 -6 35.6 2
-2 -3 -6 38.3 2.7
2 3 -6 35.6 2.4
-2 3 6 34 2.7
-2 -3 -6 38.5 2.8
-2 3 6 35.1 2.7
2 -3 6 38.3 1.9
2 3 -6 33.6 2.2
-2 3 6 35.2 2.1
-2 3 -6 38.9 2.5
-2 3 -6 34 2.4
-2 3 -6 35.1 1.9
-2 -3 6 37.5 2.2
-2 -3 6 36.7 2.9
2 -3 -6 40.4 2.6
-2 -3 6 34 2.9
2 3 6 36.8 2.6
2 -3 -6 36 2.5
2 3 6 38 2.6
-3 3 6 299.27 9
3 3 -6 281.17 8.1
3 -3 6 302.37 9
-3 -3 -6 283.27 8.5
-3 3 6 287.77 7.1
-3 3 6 287.37 8.7
-3 -3 -6 302.27 6.9
-3 -3 -6 267.27 8.4
3 3 -6 301.57 7.7
3 -3 6 289.27 8.5
-3 -3 6 290.27 7.1
3 -3 -6 282.87 8
-3 -3 6 283.07 8.7
-3 3 -6 285.17 6.4
3 3 6 283.17 8.3
-3 -3 6 264.27 8.6
-3 3 -6 292.97 8.2
3 3 6 293.97 8
-3 3 -6 283.87 8
-4 3 6 180.98 6.9
4 3 -6 174.38 5.6
-4 3 6 165.48 7
-4 -3 -6 160.88 6.7
-4 -3 -6 176.38 5
-4 -3 -6 166.58 6.5
4 3 -6 177.88 6.3
-4 3 6 178.88 5.3
4 -3 6 181.68 6.7
4 -3 6 172.78 7.1
-4 -3 6 176.98 7
4 -3 -6 174.28 6.3
-4 -3 6 162.18 6.6
4 3 6 180.68 6.6
-4 3 -6 175.78 6.1
4 3 6 175.78 6
-4 3 -6 170.48 6.4
4 -3 -6 178.58 6.1
-4 -3 6 185.98 5.7
5 3 -6 3.2 1.4
5 -3 6 6.1 2.3
-5 3 6 5 1.7
5 3 -6 7.6 1.6
5 -3 6 1.9 1.6
-5 -3 -6 2.9 1.5
-5 3 6 5.2 1.9
-5 -3 -6 4 1.7
5 3 6 5.4 1.5
-5 3 -6 5.3 1.5
-5 3 -6 2.1 1.3
-5 -3 6 2.3 1.7
-5 -3 6 4.9 1.7
5 -3 -6 4.6 1.5
5 -3 -6 4.3 1.5
5 3 6 7.1 2
6 -3 6 28.2 3.5
-6 3 6 27.8 3.6
6 3 -6 21 2.4
6 3 -6 27.3 3
-6 -3 -6 28.2 3.1
-6 -3 -6 24.3 3.4
6 3 -6 22.9 2.8
6 -3 6 25.1 3.9
-6 3 6 21.8 3.1
6 -3 -6 23.7 2.7
-6 -3 6 24.6 3.5
6 -3 -6 28.1 3.3
-6 -3 6 29.1 3.2
-6 3 -6 25 2.8
6 3 6 33 4.1
-6 3 -6 19.6 2.7
6 3 6 22.6 2.5
6 -3 -6 21.3 2.8
6 3 6 32.7 3.5
-7 3 6 9 2.5
7 -3 6 1.8 2.5
-7 -3 -6 7.9 2.6
7 -3 6 6.4 2.3
7 3 -6 6 1.9
-7 -3 -6 7.5 2.2
7 3 -6 3.7 1.7
-7 3 6 6.9 2.1
-7 -3 6 8.2 2.2
-7 3 -6 6.3 2.1
7 -3 -6 5.1 2.1
7 -3 -6 6.1 2
-7 -3 6 4.1 2.3
7 3 6 11.5 2.8
-7 3 -6 3.9 1.7
7 3 6 7.6 2.8
8 3 -6 0.4 1.5
-8 -3 -6 3.1 2
8 -3 6 -0.8 2.6
8 3 -6 0.9 1.5
-8 3 6 2.8 1.8
8 -3 6 -0.2 2
-8 3 6 0.8 1.9
-8 -3 -6 1.3 1.7
8 -3 -6 1.5 1.6
8 3 6 -1.1 2.4
-8 3 -6 1 1.5
8 -3 -6 -0.3 1.6
-8 -3 6 5.7 2.3
-8 3 -6 -0.5 1.3
-8 -3 6 5 2.1
8 3 6 2.7 2.1
0 4 -6 228.28 5.7
0 4 6 234.78 7.1
0 -4 6 225.68 6.4
0 -4 -6 239.08 7.2
0 -4 6 222.78 7.2
0 4 6 235.18 6.5
0 -4 -6 250.77 6.4
0 4 -6 238.28 6.4
0 -4 6 226.68 7.3
0 -4 -6 236.38 6.2
0 4 6 233.18 6.3
0 4 -6 231.28 6.5
-1 4 6 202.28 5.4
1 4 -6 193.38 5.7
1 4 -6 200.08 4.6
-1 -4 -6 199.58 6.5
-1 -4 -6 202.58 6.1
-1 4 6 199.28 6.3
-1 4 6 187.48 6.4
1 4 -6 200.68 5.9
1 -4 6 189.08 5.2
1 -4 6 182.58 6.4
1 -4 6 192.98 6.4
-1 4 -6 182.58 5.9
1 -4 -6 199.68 5.9
1 -4 -6 204.98 6.5
1 4 6 193.88 5.4
1 4 6 186.88 6.2
-1 -4 6 195.68 6.7
-1 -4 6 191.98 6.2
-1 4 -6 191.98 5.5
1 -4 -6 186.18 4.9
1 4 6 193.58 5.9
2 -4 6 172.68 6.2
-2 4 6 159.78 6
-2 -4 -6 179.88 4.8
-2 -4 -6 175.78 6.1
-2 4 6 170.68 4.8
2 4 -6 174.48 5.4
2 -4 6 166.78 6.2
-2 -4 -6 171.48 6.2
2 4 -6 172.38 5.7
-2 4 6 169.38 6.2
2 -4 -6 167.58 5.9
-2 -4 6 178.28 5.5
-2 4 -6 176.88 5
-2 4 -6 173.68 5.8
-2 4 -6 182.38 5.7
2 4 6 172.48 4.7
2 4 6 176.38 5.9
2 4 6 178.48 5.9
-2 -4 6 178.98 6.5
2 -4 -6 186.38 5.9
-2 -4 6 175.08 6.3
3 4 -6 6.8 1.3
3 4 -6 5.5 1.4
3 -4 6 3.2 1.5
-3 4 6 7 1.3
-3 -4 -6 6.7 1.1
3 -4 6 5.8 1.7
-3 -4 -6 6.2 1.7
-3 -4 -6 3.1 1.4
-3 4 6 7 1.8
-3 4 6 6 1.6
-3 4 -6 5.6 1
3 4 6 9 1.8
-3 -4 6 7.1 1.8
-3 4 -6 6.2 1.4
-3 -4 6 9.6 2.1
3 -4 -6 6.5 1.6
3 -4 -6 6.7 1.5
3 4 6 4.8 1.3
-3 -4 6 5.6 1.4
-3 4 -6 5.6 1.4
4 -4 6 20.1 3.1
4 4 -6 19.3 2.2
4 -4 6 21 2.9
-4 4 6 15.7 2.4
-4 -4 -6 14.6 2.5
-4 -4 -6 18.5 2.5
-4 4 6 14.6 2.4
4 4 -6 19.6 2
4 4 -6 20.8 2.3
4 4 6 13.4 2.2
-4 -4 6 15.9 2.7
4 -4 -6 17.7 2.3
-4 -4 6 20.9 2.9
4 4 6 11.9 2
4 -4 -6 16.5 2.2
-4 4 -6 20.6 2.3
-4 -4 6 19.3 2.2
-4 4 -6 16.8 2.2
5 4 -6 85.79 4.5
5 -4 6 78.29 4.7
-5 -4 -6 84.49 5.3
5 -4 6 71.09 5.2
-5 4 6 74.69 4.7
-5 4 6 74.29 5
5 4 -6 79.69 4.3
-5 -4 -6 75.19 4.6
5 4 -6 84.69 3.9
-5 -4 6 78.79 4.8
-5 4 -6 78.19 4.4
-5 -4 6 72.89 5
5 4 6 78.19 4.3
5 4 6 79.99 4.7
5 -4 -6 75.39 4.5
5 -4 -6 75.39 4.3
-5 4 -6 82.89 4.7
6 4 -6 20 2.8
-6 4 6 22 3.1
6 -4 6 18.5 3
6 -4 6 22.8 3.7
-6 -4 -6 20.2 3.4
6 4 -6 20.4 2.6
-6 4 6 22.5 3.2
-6 -4 -6 17.8 2.8
-6 -4 6 13.9 2.7
6 4 6 18.5 2.5
-6 -4 6 21.6 3.5
6 -4 -6 16.5 2.7
6 -4 -6 26.7 3.2
6 4 6 15.7 3
-6 4 -6 19.8 2.7
-6 4 -6 19.9 2.8
7 4 -6 22.1 3.2
7 4 -6 31 3.3
-7 -4 -6 24.7 3.3
7 -4 6 24.8 4.3
-7 4 6 21.5 3.3
-7 -4 -6 27.2 3.9
7 -4 6 23 3.6
-7 4 6 22.4 3.6
7 -4 -6 22.4 3.4
7 4 6 24.4 2.9
-7 4 -6 22.6 3.2
7 -4 -6 22.5 3.3
7 4 6 24.2 3.6
-7 -4 6 23.7 3.4
-7 4 -6 22.1 3
7 -4 -6 24.8 3.3
-7 -4 6 19.4 3.5
8 -4 6 8.8 3.6
-8 4 6 3.8 2.1
-8 4 6 3.9 2.2
8 4 -6 10.6 2.5
8 -4 6 11.2 3
-8 -4 -6 7 2.3
8 4 -6 7.4 2.3
-8 -4 -6 8.5 2.6
-8 4 -6 7 2.3
-8 -4 6 6.6 2.7
8 4 6 10.5 3.1
-8 4 -6 7.2 2.1
8 -4 -6 11.6 2.8
8 4 6 7.5 3.2
-8 -4 6 7 2.4
8 -4 -6 6.5 2.5
0 5 6 204.88 6.1
0 5 -6 191.98 6
0 -5 6 205.08 5.9
0 -5 -6 191.88 5.8
0 5 6 202.28 6.6
0 -5 -6 199.98 6.7
0 -5 6 190.78 6.5
0 -5 6 199.98 6.9
0 5 -6 201.18 6
0 5 -6 209.08 5.3
0 5 6 196.68 5.6
1 -5 6 593.64 13.1
1 -5 6 563.54 13.5
-1 -5 -6 583.14 11.9
1 5 -6 571.04 12.8
-1 -5 -6 583.74 13.1
1 5 -6 559.24 12.4
1 -5 6 593.14 13.8
-1 5 6 568.24 13.2
-1 5 6 556.74 13.4
-1 -5 -6 549.35 13.5
-1 5 6 571.34 11.6
1 -5 -6 567.24 13.5
1 5 6 550.94 13.3
-1 -5 6 561.24 15.5
-1 -5 6 561.34 13.8
-1 5 -6 558.94 12.8
-1 -5 6 584.14 13
-1 5 -6 578.74 12.2
1 5 6 585.04 12.2
1 -5 -6 572.04 11.8
1 -5 -6 609.54 12.8
-1 5 -6 575.04 12.4
2 -5 6 95.89 5
-2 -5 -6 103.49 4.8
2 -5 6 109.09 4.9
-2 -5 -6 107.29 3.5
2 5 -6 111.29 4.3
-2 5 6 99.89 4.7
-2 -5 -6 103.59 4.8
-2 5 6 105.49 4.8
2 5 -6 106.89 4.4
2 5 -6 103.19 4
-2 5 -6 105.39 4.3
2 -5 -6 100.89 4.6
2 5 6 96.29 4.3
-2 5 -6 108.09 5.4
2 -5 -6 104.29 4.5
-2 -5 6 102.49 4.8
-2 -5 6 97.29 4.9
2 5 6 102.29 4.6
-2 5 -6 104.59 4.5
2 5 6 107.29 4.6
3 5 -6 14.1 1.9
-3 5 6 23.1 2.6
-3 -5 -6 16.4 2.3
3 -5 6 18.5 2.5
-3 5 6 18.7 2.3
-3 -5 -6 19.6 2.6
3 -5 6 15.9 2.7
3 5 -6 18.4 2.1
3 5 -6 18.9 1.9
3 -5 -6 20.6 2.4
3 -5 -6 18.1 2.4
-3 5 -6 20.7 2.3
-3 5 -6 19.2 2.2
-3 -5 6 15.7 2.2
3 5 6 17.5 2.3
-3 -5 6 16.3 2.6
-3 5 -6 18.7 1.7
3 5 6 19.2 2.3
-3 -5 6 14.7 2.5
4 -5 6 361.16 10.3
4 5 -6 364.16 9
-4 5 6 368.96 10.7
-4 -5 -6 349.17 10.4
-4 5 6 353.66 11
4 5 -6 338.47 9.9
4 5 -6 362.76 10
-4 -5 -6 352.76 11.1
4 -5 6 370.86 11.5
-4 -5 6 354.26 10.9
-4 -5 6 364.16 10.9
-4 -5 6 355.26 9.7
-4 5 -6 345.77 10.2
-4 5 -6 345.57 10
4 5 6 372.96 10.4
4 5 6 349.96 10.1
4 -5 -6 359.56 10.3
4 -5 -6 350.56 10.3
5 -5 6 16.4 3.1
-5 5 6 11.4 2.4
-5 -5 -6 13.7 2.8
5 -5 6 12.4 2.6
-5 5 6 12.7 2.7
-5 -5 -6 10.3 2.2
5 5 -6 15.7 2.5
5 5 -6 14.7 2.3
5 5 6 16.4 2.4
5 -5 -6 9.2 2.3
-5 5 -6 15.5 2.6
-5 5 -6 13.7 2.3
-5 -5 6 13.4 2.7
-5 -5 6 10.2 2.5
5 -5 -6 14.9 2.5
5 5 6 15.1 2.7
-6 -5 -6 17.7 3
6 -5 6 12.4 2.7
-6 5 6 21.7 3.3
-6 -5 -6 15.6 3.2
6 5 -6 23.9 2.9
-6 5 6 13.2 2.6
6 5 -6 16 2.7
6 -5 6 16.8 3
6 -5 6 26.2 4.1
-6 -5 6 21.6 3.6
-6 -5 6 15.2 2.8
-6 5 -6 16.2 2.7
6 5 6 16 2.5
6 -5 -6 16.2 2.8
6 5 6 20.6 3.2
6 -5 -6 16.4 3
-6 5 -6 20.6 2.7
-7 -5 -6 7.4 2.6
7 5 -6 8.3 2.1
7 5 -6 7.9 2.2
7 -5 6 7.7 3.2
-7 -5 -6 3.5 1.7
-7 5 6 5 2.3
7 -5 6 5.6 2.5
-7 5 6 6.3 2.1
7 -5 -6 5.5 2.2
7 5 6 4.8 2.3
-7 -5 6 4.5 2.1
-7 5 -6 3.8 1.8
7 -5 -6 5.3 2.1
-7 5 -6 7.8 2.3
7 5 6 7.2 2
-7 -5 6 7.4 2.6
0 6 -6 37.9 2.6
0 6 6 33.3 2.2
0 -6 6 31.8 3
0 -6 -6 35 2.7
0 6 6 30.5 2.4
0 -6 -6 35.5 3
0 6 -6 28.6 2.3
0 6 -6 33 2
0 -6 6 34.7 2.1
0 -6 6 30.2 2.4
0 6 6 32.2 2.8
0 -6 6 32.2 3.1
1 -6 6 193.78 7.2
1 -6 6 207.88 6.1
1 6 -6 197.98 6.1
-1 -6 -6 202.68 5.6
-1 6 6 205.48 6.7
-1 -6 -6 204.58 6.8
-1 6 6 191.38 6.8
1 6 -6 202.58 6.5
-1 -6 -6 191.38 7
1 -6 6 198.38 7
1 6 6 201.48 6.1
-1 -6 6 203.08 6.9
1 -6 -6 195.58 6.3
-1 6 -6 212.58 6.1
1 6 6 203.38 6
-1 -6 6 179.78 7.1
-1 6 -6 210.98 6.4
1 -6 -6 188.88 6.9
1 6 6 195.58 6.9
-1 -6 6 201.88 6.5
-1 6 -6 205.68 6.5
1 -6 -6 200.08 6.8
-2 -6 -6 22 2.7
2 6 -6 27.5 2.1
2 -6 6 24.6 2.9
-2 6 6 27.1 2.7
-2 -6 -6 28.2 2.4
2 -6 6 22.9 2.6
-2 6 6 23.3 2.6
2 -6 6 26.5 3.2
2 6 -6 24.2 2.1
2 6 -6 26.5 2.4
-2 -6 -6 32.4 3
2 6 6 27.8 2.7
-2 -6 6 23.6 2.7
-2 6 -6 26.5 2.7
2 -6 -6 27.8 2.8
2 -6 -6 28.1 2.6
-2 6 -6 26.4 2.4
2 6 6 24.4 2.4
-2 -6 6 22.8 3
-2 -6 6 24.6 2.9
-2 6 -6 26.1 2.3
-3 -6 -6 71.69 4.7
3 -6 6 72.79 4.3
3 6 -6 81.19 3.6
-3 6 6 74.19 4.3
3 -6 6 68.59 4.1
3 6 -6 71.19 3.9
-3 -6 -6 75.89 4.5
3 6 -6 73.39 3.8
-3 6 6 77.19 4.6
3 -6 6 76.39 5
-3 -6 6 71.69 4.7
-3 6 -6 75.49 4
3 -6 -6 75.99 4.5
-3 6 -6 78.09 3.6
3 -6 -6 78.79 4.3
-3 6 -6 80.29 4.2
3 6 6 78.39 4.2
3 6 6 72.69 4.2
-3 -6 6 76.59 4.6
4 6 -6 395.36 11
-4 6 6 412.06 12.2
4 -6 6 406.76 11.5
-4 -6 -6 397.86 11.5
4 -6 6 398.86 12.4
-4 -6 -6 390.06 12.1
4 6 -6 390.86 10.7
-4 6 6 389.46 11.3
4 -6 6 399.66 11.2
-4 -6 6 412.16 11.9
-4 -6 6 408.16 11.9
-4 6 -6 396.16 11.2
-4 6 -6 405.46 11.3
4 -6 -6 377.56 11.2
4 6 6 395.86 11.3
4 6 6 400.86 11.2
4 -6 -6 396.56 11.5
-4 6 -6 396.16 10.7
5 -6 6 37.3 3.9
-5 6 6 51.09 4.4
-5 -6 -6 49.99 4.6
5 6 -6 43.3 3.5
-5 -6 -6 42 3.8
5 -6 6 35.5 4.5
-5 6 6 50.39 4
5 -6 6 51.19 4.2
5 6 -6 48.1 3.6
-5 6 -6 50.89 4
5 6 6 45.5 3.9
-5 -6 6 50.99 4.5
5 -6 -6 42.2 3.9
-5 -6 6 48.4 4.2
5 -6 -6 45 3.9
-5 6 -6 50.39 3.9
5 6 6 41.9 3.6
-6 -6 -6 19.3 3
6 6 -6 20.4 2.9
-6 6 6 12.8 2.7
-6 -6 -6 7.1 2.6
6 -6 6 10.1 2.8
6 6 -6 17.2 2.6
6 -6 6 18.2 3.7
-6 6 6 12.2 2.9
-6 6 -6 18.1 3
-6 -6 6 9.6 2.5
6 -6 -6 15.6 3
-6 6 -6 12.2 2.4
-6 -6 6 17.3 3.4
6 6 6 15.2 2.9
6 6 6 18.9 2.8
6 -6 -6 16.1 3
-7 -6 -6 3.6 2
-7 6 6 10.7 2.6
-7 6 6 8.7 2.7
7 6 -6 4.2 2
7 -6 6 4.9 3
7 6 -6 9.2 2.4
7 -6 6 10 3.1
-7 -6 -6 9.3 3.1
7 -6 -6 6 2.4
-7 6 -6 6.6 2.2
-7 6 -6 3.7 2.1
7 6 6 10 2.8
7 6 6 4.9 1.9
7 -6 -6 10 2.6
-7 -6 6 6.8 2.4
0 7 -6 25.5 2.3
0 7 -6 24.8 1.8
0 -7 -6 19.8 2.6
0 7 6 22.3 2.6
0 -7 -6 19.8 2.6
0 7 6 22.3 2.3
0 -7 6 25.2 3
0 -7 -6 23.5 2.2
0 7 -6 24.2 2.3
0 -7 6 20 2.8
-1 -7 -6 57.19 2.9
-1 -7 -6 53.29 3.8
1 7 -6 60.89 3.6
1 7 -6 61.99 3.1
-1 -7 -6 58.29 3.9
1 -7 6 58.79 4.1
1 -7 6 61.29 4.3
-1 7 6 57.09 3.8
1 -7 6 60.59 3.3
1 7 -6 62.19 3.3
-1 7 6 61.49 3.7
1 -7 -6 51.49 3.8
-1 7 -6 62.49 3.6
-1 -7 6 64.99 3.7
-1 -7 6 57.19 4.2
1 7 6 67.19 3.4
-1 7 -6 66.29 3.6
1 7 6 59.39 3.9
-1 -7 6 60.49 4.1
1 7 6 58.29 3.3
1 -7 -6 61.59 3.5
-1 7 -6 62.29 3.2
2 7 -6 158.98 5.3
2 -7 6 154.38 6.3
2 7 -6 158.18 5.4
-2 7 6 150.78 6.2
2 7 -6 150.58 5.9
-2 7 6 145.39 6.1
2 -7 6 147.49 6.8
-2 -7 -6 159.18 6.5
-2 -7 -6 164.08 6.7
-2 7 -6 146.79 5.9
-2 -7 6 157.48 6.4
2 -7 -6 160.28 6
-2 7 -6 152.68 5.6
-2 7 -6 151.18 5.7
-2 -7 6 150.48 6.7
2 7 6 151.08 6.2
2 -7 -6 140.99 6.2
-2 -7 6 154.08 6.1
3 -7 6 142.79 7
3 7 -6 138.99 5.4
-3 7 6 135.49 6
-3 -7 -6 134.79 6.2
3 -7 6 144.19 6.1
3 -7 6 135.49 6
-3 -7 -6 145.09 6.7
-3 7 6 134.59 6.3
3 7 -6 140.39 4.9
3 7 -6 150.78 6
3 7 6 144.19 6.2
3 7 6 138.49 5.7
-3 -7 6 147.49 6.8
-3 -7 6 144.49 6.2
-3 -7 6 136.39 6.2
-3 7 -6 139.99 5.9
-3 7 -6 117.59 5.5
3 -7 -6 137.99 6.3
3 -7 -6 139.59 6
4 7 -6 157.78 6.2
4 -7 6 151.48 6.8
-4 -7 -6 154.98 6.8
-4 -7 -6 142.49 7.2
4 -7 6 150.88 7.6
4 7 -6 160.08 6.5
-4 7 6 151.28 7.1
-4 7 6 151.38 6.6
4 -7 6 159.98 6.6
4 7 6 153.48 6.6
-4 7 -6 159.88 6.6
-4 -7 6 156.28 7.1
4 7 6 150.98 6.4
4 -7 -6 151.88 6.8
4 -7 -6 161.58 6.8
-4 -7 6 170.08 7.3
-4 7 -6 149.09 5.6
-4 -7 6 151.78 6.6
-4 7 -6 147.49 6.5
-5 -7 -6 37.7 4.4
5 -7 6 40.3 4.1
5 7 -6 38.6 3.5
-5 7 6 50.19 4.4
5 -7 6 41.5 4.8
5 7 -6 40.4 3.5
-5 7 6 44 3.9
-5 -7 -6 36.2 3.7
-5 7 -6 40.7 3.8
5 7 6 44.1 3.8
-5 7 -6 46.1 3.9
-5 -7 6 43.8 4.3
5 -7 -6 42.6 4
5 -7 -6 38.6 3.9
5 7 6 46.9 4
-6 -7 -6 11.9 2.8
-6 7 6 9.6 2.7
6 -7 6 9.6 2.6
6 -7 6 12.4 3.5
6 7 -6 11.6 2.5
-6 7 6 11.6 2.6
6 7 -6 8.8 2.3
-6 -7 -6 8.2 2.7
-6 -7 6 11.6 3
-6 7 -6 16.7 3.1
6 -7 -6 9.8 2.6
6 -7 -6 13.4 3
6 7 6 11.1 2.4
-6 7 -6 10.3 2.5
6 7 6 11 2.6
-7 -7 -6 7.5 2.8
7 -7 6 1.3 2.2
-7 7 6 5.3 2.4
7 7 -6 6.2 2
7 -7 6 9.4 3.7
-7 -7 -6 5 2.2
7 7 -6 3.8 2
-7 7 -6 7.3 2.3
-7 -7 6 2.9 2.3
-7 7 -6 -0.3 1.6
7 -7 -6 6.7 2.4
7 7 6 5.8 2.2
7 -7 -6 6.4 2.4
7 7 6 7.7 2.6
0 -8 -6 113.69 4.5
0 -8 -6 103.79 5.5
0 -8 -6 103.69 5.1
0 8 -6 99.29 4.5
0 8 -6 105.59 4.9
0 8 6 101.49 4.8
0 -8 6 107.29 5.7
0 8 6 110.49 5.4
0 -8 6 106.09 5.6
1 -8 6 138.79 5.2
1 -8 6 137.49 6.1
1 -8 6 136.19 6.6
1 8 -6 137.69 5.2
1 8 -6 133.69 5.6
-1 -8 -6 125.79 6
1 8 -6 138.79 4.8
-1 8 6 124.99 5.8
-1 -8 -6 132.89 6.1
-1 8 6 136.69 5.8
-1 8 -6 136.79 5.5
1 8 6 135.59 6.2
1 8 6 132.39 5.3
-1 -8 6 138.79 6.5
-1 8 -6 136.79 5.7
1 -8 -6 136.99 5.3
-1 -8 6 132.89 6.3
1 -8 -6 132.39 6.2
1 8 6 149.99 6.4
-2 -8 -6 4.7 1.9
-2 -8 -6 3.7 1.8
-2 8 6 6.5 1.9
2 -8 6 6 2.2
2 8 -6 6.6 1.4
2 8 -6 7.7 1.6
2 -8 6 9.1 2.6
2 8 -6 7.4 1.9
-2 8 6 11 2.3
-2 -8 6 5.2 2
-2 -8 6 6.9 2.3
2 8 6 7.6 2.1
2 -8 -6 6.6 1.7
2 -8 -6 5.6 1.8
-2 8 -6 5.4 1.5
-2 8 -6 6.8 1.7
-3 -8 -6 38.1 4.2
-3 -8 -6 37.5 3.7
-3 8 6 34.6 3.4
3 -8 6 38.1 3.8
3 8 -6 34.3 2.9
3 -8 6 28.5 3.3
3 8 -6 37.6 3.3
3 -8 6 34.9 4.3
-3 8 6 38.8 3.7
3 -8 -6 34 3.7
-3 8 -6 33.5 2.8
3 8 6 34.8 3.2
-3 8 -6 34.8 3.3
-3 -8 6 32.7 3.7
3 -8 -6 34.2 3.3
3 8 6 39.6 3.7
-3 -8 6 39.2 4.2
-3 8 -6 34.9 3.1
4 -8 6 206.48 8.2
-4 -8 -6 197.88 8
-4 8 6 197.58 8.4
-4 8 6 207.08 8
4 -8 6 196.38 9
-4 -8 -6 189.38 8.8
4 8 -6 207.48 7.4
4 8 -6 208.08 7.8
-4 8 -6 206.68 7.9
4 -8 -6 186.08 7.7
4 -8 -6 193.58 8.1
-4 8 -6 197.38 7.8
4 8 6 191.78 7.9
-4 -8 6 204.78 8.1
-4 -8 6 209.28 8.5
4 8 6 183.98 7.4
-5 8 6 4.4 1.9
5 -8 6 5.9 2.9
5 -8 6 1.3 2
-5 -8 -6 4.9 1.9
-5 8 6 4.8 2.1
5 8 -6 4 1.8
-5 -8 -6 5.9 2.4
5 8 -6 5.3 1.8
-5 8 -6 0.9 1.5
5 -8 -6 4.9 2.1
5 -8 -6 6.7 2.4
5 8 6 4.7 1.9
-5 8 -6 4.6 1.8
5 8 6 4 1.9
-5 -8 6 5.2 2.3
-5 -8 6 4.9 2.2
6 8 -6 1.7 1.8
-6 -8 -6 2.6 2.3
-6 8 6 2.7 2
-6 -8 -6 0.8 1.7
6 -8 6 0.2 2.7
6 -8 6 0.8 2.2
6 8 -6 -0.5 1.3
-6 8 -6 -1.5 1.3
6 -8 -6 2.1 2
-6 8 -6 1.5 1.6
6 8 6 1.7 1.7
-6 -8 6 0.1 2.1
6 8 6 0.3 1.7
6 -8 -6 0.9 2
0 -9 6 390.46 11.5
0 9 6 376.16 10.8
0 -9 -6 373.96 11.6
0 9 -6 390.26 10.3
0 9 6 378.36 11.3
0 -9 6 379.46 12
0 9 -6 389.46 11
0 -9 -6 377.26 11.1
1 9 -6 25.9 2.5
-1 9 6 23.7 2.8
-1 -9 -6 19 3.1
1 9 -6 22.8 2.7
-1 -9 -6 24.5 3.3
1 -9 6 23.5 3.7
-1 9 6 24.7 3
1 -9 6 23.2 3.3
1 9 6 24.3 3.3
-1 9 -6 22.6 2.8
1 9 6 21.6 2.6
-1 -9 6 25.1 3.6
1 -9 -6 20.1 3.2
-1 9 -6 25.3 2.6
-1 -9 6 23.7 3.6
-2 9 6 23.2 3
-2 -9 -6 27.1 3.8
2 9 -6 32 3.1
-2 -9 -6 18.3 3
2 -9 6 25 3.5
2 9 -6 26.6 2.6
-2 9 6 19.8 2.9
2 -9 6 22.1 3.7
2 9 6 30.2 3.6
2 -9 -6 21.9 2.8
-2 -9 6 26.8 3.9
-2 9 -6 26 2.8
-2 9 -6 29.7 3
2 -9 -6 22.8 3.1
-2 -9 6 23.1 3.6
3 -9 6 70.49 4.7
3 9 -6 79.59 4.7
-3 9 6 73.29 5
-3 -9 -6 78.59 5.7
3 -9 6 89.99 6.3
-3 -9 -6 77.09 5.1
3 9 -6 76.69 4.2
-3 9 6 76.39 4.8
3 -9 -6 77.79 4.9
3 9 6 78.89 5.2
-3 -9 6 68.69 5.2
3 -9 -6 68.09 5
-3 -9 6 74.69 5.4
3 9 6 80.79 4.5
-3 9 -6 68.69 4.2
-3 9 -6 72.89 4.7
4 9 -6 77.29 4.8
-4 9 6 69.19 4.7
4 -9 6 64.39 5
4 -9 6 78.79 6.2
-4 -9 -6 73.69 5.1
-4 9 6 85.79 5.7
-4 -9 -6 75.49 5.9
4 9 -6 83.59 4.7
-4 9 -6 60.99 4.1
-4 -9 6 75.59 5.5
4 -9 -6 74.79 5.4
4 9 6 72.09 4.7
4 9 6 79.29 5.2
4 -9 -6 66.59 4.9
-4 9 -6 69.39 4.8
-4 -9 6 80.29 5.6
5 9 -6 4.4 1.8
5 9 -6 6.3 2
-5 -9 -6 4.2 2
-5 -9 -6 8.4 3
5 -9 6 5.1 3
5 -9 6 7.8 2.7
-5 9 6 5 2
-5 9 6 5.8 2.3
-5 -9 6 4.2 2.6
5 9 6 3.7 2
-5 -9 6 7.5 2.6
5 9 6 5.5 2.3
5 -9 -6 4.9 2
-5 9 -6 3.6 1.9
5 -9 -6 2.3 2.1
6 9 -6 11.1 2.6
6 -9 6 11 3.9
6 9 -6 13.6 2.8
6 -9 6 14.3 3.5
-6 -9 -6 4.9 2.3
-6 -9 -6 10.7 3.3
-6 9 6 12 3.1
6 9 6 10.4 2.7
6 -9 -6 9.4 2.9
-6 -9 6 8.8 3
-6 9 -6 5.7 2.3
6 -9 -6 7.6 2.6
6 9 6 13.7 3
0 10 -6 221.68 8.3
0 -10 -6 239.88 10.4
0 -10 -6 214.68 8.8
0 10 6 215.38 8.1
0 10 -6 222.38 7.5
0 10 6 225.38 8.6
0 -10 6 226.08 9.3
0 -10 6 236.68 8.9
-1 -10 -6 2.9 2.1
1 -10 6 5.6 2.4
-1 10 6 3.8 1.8
1 -10 6 3.2 2.5
1 10 -6 1.8 1.5
-1 10 6 3.2 1.7
-1 -10 -6 0.1 1.5
-1 -10 6 2.5 2.3
-1 10 -6 3.9 1.6
1 10 6 1.8 1.7
1 10 6 0.8 1.3
1 -10 -6 4.4 2
-1 -10 6 0.9 2
-1 10 -6 7.7 2.1
2 10 -6 3.4 1.6
-2 -10 -6 0.3 2.1
-2 -10 -6 2 1.9
-2 10 6 0.4 1.4
-2 10 6 1 1.6
2 -10 6 0.7 2.3
2 -10 -6 2.6 2
2 10 6 0 1.7
-2 10 -6 2.1 1.5
2 -10 -6 0.5 1.5
-2 -10 6 0.8 2.1
-2 10 -6 2.5 1.5
-2 -10 6 3.9 2.1
3 10 -6 32.1 3.3
3 -10 6 29.8 3.7
-3 10 6 28.8 3.6
-3 -10 -6 23 3.5
3 10 -6 27.5 2.9
3 -10 6 29.8 4.8
-3 -10 -6 25.3 4.3
-3 10 6 31.7 3.5
-3 -10 6 27.3 4.3
3 -10 -6 27 3.9
3 10 6 36.1 3.9
-3 10 -6 31.6 3.2
-3 10 -6 25.3 3.3
3 -10 -6 30 3.6
-3 -10 6 31.2 4.2
4 -10 6 7.4 2.7
-4 10 6 8.1 2.3
-4 -10 -6 6.2 2.3
-4 10 6 4.3 2.1
4 10 -6 6.7 2.1
-4 -10 -6 3.4 2.7
4 -10 6 5.7 3.2
4 10 -6 5.3 1.8
4 -10 -6 5.6 2.3
-4 -10 6 9.3 2.9
4 10 6 6.3 2
-4 10 -6 6.7 2
4 10 6 5.9 2.2
-4 10 -6 7.7 2.3
-4 -10 6 4.2 2.5
4 -10 -6 7.7 2.6
5 10 -6 13.8 2.7
5 -10 6 10 3.7
-5 -10 -6 5.8 3
5 -10 6 13 3.3
-5 10 6 11.3 2.9
5 10 -6 11.5 2.7
-5 -10 -6 9.6 2.7
-5 -10 6 11.9 3.3
5 -10 -6 11.4 3.1
5 10 6 9.8 2.6
-5 10 -6 9.3 2.7
-5 -10 6 11.5 3.3
5 -10 -6 9.1 2.6
5 10 6 8.2 2.7
0 -11 6 122.99 6.7
0 -11 -6 112.59 6.5
0 11 -6 116.69 6.4
0 11 6 108.29 6.2
0 11 6 117.09 6
0 -11 6 109.69 7.1
0 11 -6 106.99 5.9
1 11 -6 0.7 1.6
1 -11 6 6.7 2.8
-1 -11 -6 -2.2 1.9
-1 -11 -6 6.4 2.3
-1 11 6 -0.1 1.5
-1 11 6 4 1.9
-1 11 -6 2.7 1.7
1 -11 -6 2.2 2.1
1 11 6 2.8 1.7
-1 11 -6 4.6 1.6
1 11 6 -0.7 1.6
-1 -11 6 -0.5 2.2
-1 -11 6 3.5 2.5
-2 11 6 34.8 3.8
-2 -11 -6 17.2 3.6
2 11 -6 24.3 3.3
-2 -11 -6 28.2 3.8
2 -11 6 29.6 5
-2 11 6 23 3.4
2 11 6 28.8 3.9
-2 -11 6 25.9 4.2
-2 -11 6 25.2 4.1
2 -11 -6 31.2 4
-2 11 -6 28.5 3.3
-2 11 -6 27.8 3.4
2 -11 -6 24.8 3.3
3 -11 6 17.4 4.2
3 11 -6 16.5 2.7
-3 -11 -6 20.3 4.1
-3 11 6 11.6 2.6
-3 11 6 14 3.1
-3 -11 -6 10.1 2.8
3 11 -6 17.4 3.1
-3 11 -6 6.2 2
3 -11 -6 11.8 3
-3 11 -6 14.6 2.8
-3 -11 6 11.4 3.1
3 11 6 14.5 3.1
-3 -11 6 15.3 3.6
3 -11 -6 10.9 2.8
-4 -11 -6 1.1 2.7
4 11 -6 0.5 1.4
4 11 -6 2.8 1.7
-4 -11 -6 1.7 1.9
-4 11 6 -0.7 1.7
4 -11 6 1.2 2.2
4 -11 6 1.6 3.1
-4 -11 6 -1.7 2.4
-4 11 -6 0.5 1.7
4 -11 -6 -0.6 2
-4 11 -6 1.2 1.6
4 -11 -6 0.6 2
-4 -11 6 -0.3 2.3
4 11 6 0.6 1.9
0 -12 6 -2.5 2.5
0 12 -6 0.4 1.8
0 12 6 1.3 1.7
0 -12 -6 3.3 2.4
0 12 6 0.5 1.8
-1 -12 -6 4.3 2.4
-1 12 6 3.2 2
-1 -12 -6 1.6 2.5
-1 12 6 2.5 1.9
1 -12 6 -2.3 2.5
1 12 -6 2.1 1.9
-1 -12 6 8.1 3.4
-1 -12 6 3 3.5
1 -12 -6 5.2 2.4
-1 12 -6 2.9 1.8
-1 12 -6 2.1 1.8
1 12 6 1.7 2.1
1 12 6 0.1 1.7
-2 12 6 7.8 2.4
2 -12 6 7.9 3.3
-2 12 6 5.2 2.2
-2 -12 -6 5.4 3.1
2 12 -6 4.7 2.1
-2 -12 -6 5 2.3
-2 12 -6 8.7 2.3
-2 -12 6 4.4 2.6
-2 -12 6 4.8 2.9
2 12 6 3.4 2.3
2 -12 -6 6.6 2.7
-2 12 -6 5.2 2.1
-3 12 6 13.8 3.4
3 12 -6 16 3.2
-3 -12 -6 14.7 3.8
-3 -12 -6 13 3.1
3 -12 6 12 4.1
-3 -12 6 16 3.6
-3 -12 6 14.1 3.6
-3 12 -6 14.7 3
3 -12 -6 16.9 3.4
3 -12 -6 13.6 3
-3 12 -6 12.6 2.5
3 12 6 12.2 2.9
0 13 6 3.6 2.2
0 -13 -6 6.9 2.8
0 -13 6 10.3 3.8
0 13 6 5.3 2.3
0 13 -6 1.5 2.2
-1 13 6 15.4 3.2
1 -13 6 21.2 4.7
-1 13 6 15.2 3.3
1 13 6 19.5 3.6
0 0 -7 -0.2 0.7
0 0 -7 0.3 0.7
0 0 7 1.1 0.9
0 0 -7 0.6 0.6
0 0 7 1.1 1
0 0 7 -0.1 0.6
1 0 7 -0.2 0.8
-1 0 7 0.9 0.9
-1 0 -7 0.3 0.7
1 0 -7 -0.1 0.6
1 0 -7 0.3 0.7
1 0 7 0.3 0.8
-1 0 -7 0.5 0.7
1 0 7 0.1 0.7
1 0 -7 0.7 0.7
-1 0 7 0.7 0.9
-1 0 -7 -0.5 0.4
2 0 7 67.19 3.2
-2 0 -7 71.79 3.2
2 0 -7 70.29 3.4
2 0 -7 70.69 3
2 0 7 63.69 3.5
-2 0 -7 67.59 3.5
2 0 7 66.39 3.7
2 0 -7 69.89 3.4
-2 0 7 71.79 3.9
-2 0 7 70.29 3.6
-3 0 7 -0.7 0.9
-3 0 -7 0.7 0.7
3 0 7 0.6 1.1
3 0 7 1.8 1.1
3 0 7 -0.5 0.7
-3 0 7 0.5 1
3 0 -7 -0.1 0.8
-3 0 7 3.1 1.3
-3 0 -7 0.2 0.8
3 0 -7 -0.3 0.6
3 0 -7 0.8 1
-4 0 -7 19.6 2.4
-4 0 7 17.4 2.6
-4 0 -7 19.8 2
4 0 7 17.6 2.7
-4 0 -7 20.9 2.5
4 0 -7 16.3 2.2
-4 0 7 18 2.3
4 0 7 16.3 1.9
-4 0 7 17.4 2.7
4 0 7 21.3 2.6
4 0 -7 20.7 2.3
5 0 7 2.1 1.7
5 0 7 1.1 1.5
5 0 -7 2 1.2
5 0 -7 0.2 1.1
-5 0 -7 0.5 1.4
-5 0 7 -0.7 1.3
-5 0 -7 0.9 1.2
-5 0 -7 0.4 0.9
-5 0 7 -0.5 1
6 0 -7 44 3.8
-6 0 7 41.6 3.4
-6 0 -7 39.3 3.6
-6 0 7 38.3 4
6 0 7 42 4.5
-6 0 -7 34.8 3.8
6 0 -7 39.5 3.3
6 0 7 31 3.7
-7 0 7 2.1 1.6
7 0 -7 -1.1 1.2
-7 0 7 1.2 1.6
-7 0 -7 -0.2 1.3
7 0 -7 -0.8 1.1
7 0 7 2.5 2.4
7 0 7 -0.8 1.7
8 0 7 33.6 5.4
8 0 -7 33 3.6
-8 0 7 26.3 4
-8 0 -7 29.4 3.8
8 0 7 26.1 4.2
8 0 -7 21.5 3.4
8 0 -7 26.6 3.5
0 1 7 -0.3 0.8
0 -1 -7 0.5 0.7
0 -1 7 -0.8 0.8
0 -1 -7 -0.5 0.5
0 1 7 0.9 0.6
0 1 -7 0.4 0.7
0 1 7 -0.8 0.7
0 -1 7 -0.2 0.7
0 -1 7 0.3 0.9
0 -1 -7 0.8 0.8
0 1 7 -0.5 0.7
0 1 -7 0.8 0.7
0 1 -7 0.3 0.6
-1 -1 -7 44.9 2.4
-1 1 7 45.5 3
1 1 -7 42 2.2
1 1 -7 43.9 2.5
1 1 -7 47.5 2.7
1 -1 7 45.9 2.7
-1 -1 -7 44.8 2.8
-1 1 7 43.3 2.9
-1 1 7 41.2 2.7
-1 -1 -7 41.6 2.5
1 -1 7 45.1 2.6
-1 -1 -7 43.5 1.9
1 -1 7 42.4 3
1 1 7 40.4 2.7
-1 1 -7 47.4 2.7
-1 -1 7 49.2 3.2
1 1 7 43 2.5
1 -1 -7 47.6 2.6
1 -1 -7 41.8 2.5
-1 1 -7 43.3 2
-1 -1 7 39.2 2.8
-1 -1 7 45.8 2
1 1 7 41.1 2.8
-1 1 -7 46.2 2.6
1 -1 -7 44.1 2.6
2 1 -7 45.4 2.7
2 -1 7 41.8 2.5
2 -1 7 47.2 3.1
-2 1 7 46.3 3.3
-2 -1 -7 48.5 2.8
2 1 -7 42.7 2.7
-2 1 7 48.6 3.3
2 1 -7 49 2.2
-2 -1 -7 48.2 3
-2 -1 -7 44.2 2.5
2 -1 7 47.9 3.3
-2 1 7 44.6 2.8
-2 -1 7 43.3 3.2
-2 1 -7 45 2.9
2 -1 -7 42.1 2.5
2 1 7 48.8 3.2
-2 -1 7 44.9 3.1
-2 1 -7 46.2 2.7
-2 1 -7 46.8 1.8
2 -1 -7 39.4 2.7
2 1 7 42.4 2.7
2 -1 -7 40.5 2.7
-3 -1 -7 0.6 0.7
-3 1 7 -0.3 1.1
3 -1 7 0.8 1.2
3 -1 7 2.5 0.9
3 -1 7 0.7 1.1
3 1 -7 0.9 0.9
-3 -1 -7 -0.1 0.8
-3 -1 -7 1.6 1.1
-3 1 7 1.2 1.2
3 1 -7 1.1 0.9
-3 -1 7 1.4 1.2
3 -1 -7 1.9 1
-3 -1 7 -0.6 0.9
3 1 7 0.4 0.9
3 -1 -7 0.8 0.9
-3 1 -7 1.6 1
-3 1 -7 1.4 1
3 1 7 0.3 1.1
3 -1 -7 1.9 0.9
3 1 7 1.5 1.1
4 -1 7 11.7 2.4
4 1 -7 9.3 1.7
-4 -1 -7 15.2 2.2
-4 1 7 11.8 2.3
4 -1 7 12.7 2.3
4 1 -7 9.3 1.8
-4 1 7 11.2 2.2
-4 -1 -7 15.4 2.3
4 -1 -7 12.9 1.7
-4 -1 7 14.4 2.5
4 -1 -7 10.1 2
4 1 7 10.4 1.7
-4 1 -7 9.9 1.9
4 1 7 9.9 2.3
-4 -1 7 13.7 2.3
4 1 7 9.7 2
-4 1 -7 10.9 1.9
4 -1 -7 11.4 2
5 -1 7 175.88 7.2
5 1 -7 170.78 6.3
-5 1 7 177.58 7.9
5 -1 7 174.28 7.7
5 1 -7 178.48 6.9
-5 1 7 183.38 7.6
-5 -1 -7 165.28 7.1
-5 -1 -7 176.18 7
5 -1 -7 165.78 6.9
5 1 7 181.98 7.3
-5 -1 7 184.98 7.7
-5 1 -7 176.08 7
5 1 7 177.38 7.7
-5 -1 7 173.18 6.6
-5 1 -7 174.38 6.2
5 -1 -7 168.78 6.5
-6 1 7 87.69 5.9
6 1 -7 73.29 4.3
6 1 -7 77.79 4.8
-6 -1 -7 71.09 4.8
-6 -1 -7 78.29 5.2
-6 1 7 75.59 5.2
6 -1 7 77.99 5.7
6 -1 7 81.09 5.3
-6 1 -7 77.49 4.9
-6 -1 7 72.59 4.5
-6 -1 7 66.99 5.1
-6 1 -7 78.79 4.3
6 1 7 81.69 5.8
6 -1 -7 80.59 4.6
6 -1 -7 76.59 4.9
6 1 7 78.19 5.1
-7 -1 -7 18.6 3.5
7 1 -7 19.1 2.6
7 1 -7 20.2 3
-7 1 7 15.5 3.4
7 -1 7 14.8 3.1
-7 -1 -7 26.2 3.4
-7 1 7 19.4 3.6
7 -1 7 17 3.9
7 1 7 16.4 3.7
7 1 7 22 3.7
-7 -1 7 19.7 3.5
7 -1 -7 16.2 2.8
-7 -1 7 20.3 2.9
-7 1 -7 17.4 3
-7 1 -7 14.3 2.3
7 -1 -7 14.5 2.8
-8 -1 -7 4 2
-8 -1 -7 3.4 2.4
8 -1 7 2.2 2.4
8 1 -7 4.4 1.9
8 1 -7 4 1.8
8 -1 7 5.4 3.1
-8 1 7 9.9 2.8
8 1 7 9.8 3.5
8 -1 -7 3.8 2.1
8 -1 -7 3.7 1.9
8 1 7 1.7 2.4
-8 1 -7 2.2 1.8
-8 -1 7 6 2.5
0 -2 -7 0.1 0.7
0 2 -7 0 0.7
0 2 7 0.7 0.9
0 -2 7 -0.7 0.8
0 2 7 0.5 0.8
0 2 7 -0.6 0.7
0 -2 -7 0.8 0.6
0 -2 7 1.1 0.8
0 -2 -7 -0.7 0.6
0 2 -7 1.7 0.9
0 -2 -7 0.4 0.8
0 -2 7 -0.4 0.9
0 2 7 0.5 0.6
1 2 -7 107.89 4
1 2 -7 105.89 3.4
-1 2 7 105.89 4.5
-1 2 7 108.09 4.7
-1 -2 -7 103.09 3.8
1 -2 7 104.89 4.7
1 2 -7 104.19 4.1
-1 2 7 108.89 4.4
1 -2 7 115.19 4.1
-1 -2 -7 114.29 3.4
-1 -2 -7 106.29 3.9
-1 -2 -7 101.99 4.4
1 -2 -7 111.19 4.3
-1 2 -7 117.09 3.6
1 -2 -7 103.59 4.1
1 2 7 103.09 3.6
-1 2 -7 101.19 4.1
1 2 7 110.99 4.5
1 -2 -7 107.29 4.2
-1 -2 7 110.99 4.6
1 2 7 106.09 4.4
-1 2 -7 105.69 4
-1 -2 7 104.49 4.7
-1 -2 7 105.69 3.5
1 2 7 110.89 4.1
-2 -2 -7 422.56 10.2
2 -2 7 431.56 9.3
2 -2 7 411.96 10.9
2 -2 7 426.76 10.7
-2 -2 -7 427.36 9.6
-2 -2 -7 397.06 10.5
-2 2 7 422.66 11.1
2 2 -7 422.16 10.1
-2 2 7 409.76 10.9
2 2 -7 426.36 10.3
2 -2 -7 434.76 10.2
-2 -2 7 405.76 10.9
2 2 7 430.86 10.3
2 -2 -7 402.46 10.2
2 -2 -7 413.96 10.4
-2 -2 7 415.36 8.7
-2 2 -7 404.46 10
-2 -2 7 404.06 10.8
2 2 7 393.86 10.5
-2 2 -7 427.26 10.3
-2 2 -7 410.46 8.5
-3 -2 -7 18.6 2.2
-3 2 7 13.6 2.2
-3 -2 -7 17 2.2
3 2 -7 15 1.8
-3 2 7 14.6 1.8
3 -2 7 17 2.5
-3 2 7 14.3 2.3
3 2 -7 12.2 1.8
3 -2 7 15.8 2.4
-3 -2 7 16.3 2.6
3 2 7 14.8 2.3
3 2 7 15.5 2
3 -2 -7 17 1.9
-3 -2 7 14 2.2
3 -2 -7 12.7 1.9
3 2 7 13 2.1
-3 2 -7 15.6 2
-3 2 -7 15.4 1.9
3 -2 -7 11.3 2
4 -2 7 8 2.2
-4 2 7 9.6 2.2
4 -2 7 13.9 2.4
-4 -2 -7 11.6 1.6
4 2 -7 13.5 2
4 2 -7 14.4 1.9
-4 2 7 11.8 1.9
-4 -2 -7 13.4 2.3
-4 -2 -7 10.6 2.2
-4 2 7 10.1 2.2
4 -2 -7 8.8 1.9
-4 -2 7 8.5 2.2
4 2 7 14 1.9
4 -2 -7 15.6 2.1
-4 2 -7 11.2 1.8
4 2 7 13.3 2.5
-4 -2 7 11.2 2.3
4 2 7 11.5 2.2
-4 2 -7 9.8 1.9
4 -2 -7 12 1.8
-5 2 7 73.49 4.6
-5 2 7 70.19 4.8
-5 -2 -7 69.89 4
5 2 -7 77.49 4.5
-5 -2 -7 79.19 4.7
5 -2 7 72.09 5.1
-5 2 7 72.99 5.1
5 2 -7 78.29 4.1
-5 -2 -7 75.69 4.8
5 -2 7 83.29 5
5 2 7 71.59 4.6
5 2 7 69.29 3.8
-5 -2 7 68.69 5
-5 2 -7 71.59 4.4
5 -2 -7 65.89 4.4
-5 -2 7 72.39 4.4
5 -2 -7 70.69 4.2
-5 2 -7 71.59 4.1
5 -2 -7 72.79 4.2
5 2 7 66.09 4.9
6 -2 7 3.7 2
6 2 -7 6.9 1.8
-6 2 7 4.6 1.8
-6 2 7 5.7 2.4
-6 -2 -7 6.7 2.1
6 2 -7 5.3 1.7
6 -2 7 10.4 2.8
-6 -2 -7 2.9 1.7
-6 2 -7 2.2 1.5
-6 -2 7 3.3 1.6
-6 2 -7 5.7 1.7
6 2 7 6.8 2.2
6 -2 -7 3.1 1.7
6 -2 -7 3.9 1.8
-6 -2 7 5.6 2.2
6 2 7 4 2.3
7 -2 7 20.1 3.6
-7 2 7 11.1 2.9
7 -2 7 17.1 3.7
7 2 -7 14.5 2.4
7 2 -7 12.3 2.5
-7 -2 -7 14 3
-7 2 7 12.8 3.1
7 2 -7 11.7 2.4
-7 -2 -7 8.8 2.3
7 2 7 17 3.2
7 -2 -7 13.7 2.6
7 2 7 14 3.3
-7 2 -7 16.7 2.5
-7 -2 7 12.5 2.6
-7 2 -7 18.8 3.3
-7 -2 7 16.8 3.2
7 -2 -7 14.9 2.9
8 2 -7 1.7 1.8
8 -2 7 1.9 2.3
-8 2 7 -0.2 2
-8 -2 -7 -0.2 1.4
8 2 -7 1 1.7
8 -2 7 1.4 2.6
-8 2 7 1.6 1.7
-8 -2 -7 0.3 1.9
8 -2 -7 -1.4 1.5
8 2 7 0 2.7
-8 -2 7 -0.2 1.5
8 2 7 -1.6 1.9
-8 2 -7 1.4 1.6
8 -2 -7 -0.8 1.4
-8 -2 7 1.2 2.1
0 -3 7 1.5 1
0 -3 7 0.2 1
0 -3 -7 0.6 0.7
0 3 7 0.2 0.8
0 3 -7 0.9 0.7
0 -3 -7 1.1 0.8
0 -3 7 1.9 1
0 3 7 1.9 1
0 3 -7 0.6 0.6
0 -3 -7 1.5 1
0 3 -7 -0.3 0.6
0 3 7 0.8 0.8
-1 3 7 61.09 3.5
-1 -3 -7 56.89 3
-1 -3 -7 57.09 3.4
-1 3 7 58.29 3.4
1 -3 7 55.89 3.5
-1 3 7 57.69 3.4
-1 -3 -7 58.29 2.9
1 3 -7 59.09 3.1
1 3 -7 64.09 3.1
1 3 -7 56.89 2.3
1 -3 7 57.29 3.6
1 -3 7 59.19 2.9
1 3 7 55.49 3.3
-1 -3 7 61.39 2.9
1 3 7 57.89 2.7
1 -3 -7 48.9 3.1
-1 3 -7 59.29 2.6
-1 3 -7 54.59 2.8
-1 3 -7 51.09 3
1 3 7 66.39 3.4
-1 -3 7 58.49 3.5
1 -3 -7 60.09 3.2
-1 -3 7 61.89 3.8
2 3 -7 140.39 5
-2 -3 -7 155.38 5.5
2 -3 7 137.99 5.7
-2 3 7 154.88 6
2 -3 7 144.79 5.7
2 3 -7 147.69 5.2
-2 3 7 139.79 5.7
-2 3 7 145.79 4.8
-2 -3 -7 135.99 5.5
-2 3 -7 145.89 4.3
-2 -3 7 148.69 6
2 -3 -7 153.48 5.4
-2 -3 7 142.29 5.8
2 3 7 147.99 5.4
-2 3 -7 152.28 5.3
2 -3 -7 153.18 5.5
-2 -3 7 149.99 4.6
-2 3 -7 147.69 5.2
2 3 7 144.29 5.5
3 -3 7 5.6 1.8
3 3 -7 9.2 1.7
3 -3 7 4 1.6
-3 3 7 6.8 1.7
3 3 -7 9.7 1.8
-3 3 7 10.4 1.6
-3 -3 -7 8.4 1.3
-3 -3 -7 8.7 1.8
-3 -3 -7 4.5 1.5
-3 3 7 8.9 2.1
3 3 7 8.4 1.7
-3 -3 7 7.1 1.9
-3 3 -7 7 1.6
3 -3 -7 7.1 1.6
-3 -3 7 8 2
3 -3 -7 10.1 1.9
3 3 7 6.7 1.7
-3 3 -7 7.7 1.6
-4 3 7 68.39 4.4
4 3 -7 59.59 3.4
4 -3 7 62.19 4.2
-4 -3 -7 62.79 4.2
-4 -3 -7 65.89 3.1
4 -3 7 63.59 4.5
-4 3 7 63.19 4.4
-4 -3 -7 64.59 4.1
4 3 -7 66.89 3.9
4 3 7 67.89 4.2
4 -3 -7 68.29 3.8
-4 3 -7 67.69 4
-4 -3 7 67.19 4.6
4 3 7 71.79 3.9
-4 -3 7 70.59 4.5
4 -3 -7 65.99 4
-4 3 -7 62.99 3.7
-5 -3 -7 104.59 5.5
5 3 -7 89.49 4.4
-5 3 7 100.89 5.7
5 3 -7 105.29 5.3
-5 3 7 106.09 6
5 -3 7 96.29 6
-5 -3 -7 102.69 5.7
5 -3 7 100.69 5.5
5 3 7 105.59 4.9
5 -3 -7 101.09 4.8
-5 -3 7 107.69 5.5
5 3 7 106.19 6.1
-5 3 -7 107.89 5.1
-5 -3 7 105.19 6
5 3 7 117.49 5.9
5 -3 -7 103.79 5.3
5 -3 -7 105.39 5.6
-5 3 -7 99.99 5.3
-6 -3 -7 26 3.5
-6 3 7 21 3.1
6 3 -7 22.7 2.5
-6 -3 -7 20.4 3
6 -3 7 21 3.9
6 3 -7 17.3 2.8
-6 3 7 25.3 3.6
6 -3 7 24.9 3.6
6 3 -7 19 2.8
-6 3 -7 23.8 2.9
6 3 7 23.7 3.4
-6 -3 7 22.7 3.7
6 3 7 20.7 2.6
6 -3 -7 27.3 3.2
-6 -3 7 20.2 3
6 -3 -7 19.3 3
6 3 7 23.4 3.7
-6 3 -7 20.6 3
-7 -3 -7 1.9 1.9
-7 -3 -7 1.7 1.6
7 3 -7 2.3 1.8
7 -3 7 1.8 2.4
-7 3 7 1.4 2
7 -3 7 0 2
-7 3 7 4.1 1.9
7 3 -7 1.9 1.7
7 3 7 -0.2 2.1
-7 3 -7 2.5 1.7
7 -3 -7 0.8 1.6
7 3 7 3.8 2.2
-7 -3 7 2.5 1.8
7 -3 -7 3 1.8
-7 3 -7 2.7 1.6
-7 -3 7 0.6 2
-8 3 7 -2.1 1.8
-8 -3 -7 0.4 1.7
8 3 -7 1.7 1.8
8 -3 7 2.6 2.2
-8 3 7 0 1.8
-8 -3 -7 0.7 1.6
8 -3 7 0.1 2.8
8 3 -7 -0.3 1.5
8 3 7 1.8 2.4
8 -3 -7 -0.2 1.5
-8 3 -7 1.6 1.8
-8 -3 7 0.1 1.6
8 3 7 0.3 2.1
8 -3 -7 -0.7 1.6
-8 -3 7 2.2 2.1
-8 3 -7 -1.2 1.3
0 4 -7 -0.4 0.6
0 4 -7 0.3 0.6
0 4 -7 -0.3 0.6
0 -4 -7 1.2 0.9
0 4 7 0.1 0.8
0 4 7 0.3 0.8
0 -4 7 0.4 1.1
0 -4 -7 0.9 0.8
0 -4 -7 0.1 0.9
0 -4 7 -1 0.9
-1 4 7 94.89 4.6
-1 4 7 95.49 4.4
-1 -4 -7 83.89 4.3
-1 -4 -7 93.59 4
-1 4 7 93.59 3.7
1 4 -7 99.29 4.1
1 -4 7 107.79 4.7
1 4 -7 93.79 4
1 -4 7 95.19 4.8
1 -4 7 92.59 3.7
-1 -4 7 106.69 5.1
-1 -4 7 101.39 4.6
1 -4 -7 100.99 4.6
-1 4 -7 95.99 3.8
-1 4 -7 104.89 4.3
1 4 7 105.19 3.8
-1 -4 7 100.29 4.1
1 4 7 106.19 4.6
1 -4 -7 91.39 4.1
1 4 7 96.09 4.2
2 -4 7 68.19 4.1
-2 4 7 68.49 3
-2 -4 -7 68.49 3
-2 -4 -7 69.59 3.8
-2 4 7 61.59 3.8
-2 4 7 64.89 3.9
2 -4 7 69.49 4.1
2 4 -7 72.99 3.6
-2 -4 -7 66.29 3.9
2 4 -7 64.19 3.3
-2 4 -7 63.69 3.3
-2 -4 7 64.39 4.2
2 4 7 72.49 3.8
2 4 7 66.39 3.8
-2 4 -7 66.09 3.6
2 -4 -7 62.99 3.5
-2 -4 7 75.59 4.3
-2 4 -7 67.49 3
2 -4 -7 60.09 3.6
-2 -4 7 62.39 3.3
-3 -4 -7 15.3 1.5
-3 4 7 10.3 2.2
-3 4 7 10.4 2.2
3 4 -7 12.5 1.9
3 -4 7 10.1 2.1
-3 -4 -7 10.9 2.1
-3 -4 -7 13.4 2.2
3 4 -7 9.1 1.6
3 -4 7 15.9 2.7
3 -4 -7 9.4 1.8
-3 4 -7 12.6 1.9
-3 -4 7 14 1.9
-3 4 -7 11.7 1.9
3 -4 -7 14.3 2.3
-3 -4 7 14.5 2.5
3 4 7 12.2 2
-3 -4 7 9.1 2.1
3 4 7 13.1 2.2
4 4 -7 45.6 3.3
4 -4 7 40.7 3.6
-4 -4 -7 37.8 3.4
-4 4 7 42.2 3.6
-4 4 7 46.4 3.9
-4 -4 -7 42.2 3.7
4 -4 7 40.7 3.9
4 4 -7 42 2.9
4 4 7 41 3.5
-4 -4 7 32.7 3.7
4 -4 -7 42.7 3.3
4 4 7 47.2 3.4
-4 4 -7 42.2 3.4
-4 -4 7 47.3 3.9
4 -4 -7 43.8 3.3
-4 4 -7 42.1 3.2
5 4 -7 206.48 7.6
-5 4 7 208.18 8.3
5 -4 7 219.78 8.2
-5 -4 -7 202.28 8.4
5 4 -7 210.18 7.6
-5 4 7 217.28 8.8
-5 -4 -7 202.08 8
5 4 -7 212.58 6.9
5 -4 7 209.88 8.9
-5 -4 7 205.68 8.1
-5 4 -7 214.18 8.1
-5 4 -7 197.68 7.5
5 4 7 205.18 7.4
5 -4 -7 202.18 7.5
5 -4 -7 217.58 7.9
-5 -4 7 218.88 8.8
5 4 7 210.58 8.2
-6 4 7 87.79 6
6 -4 7 91.89 5.7
6 -4 7 94.89 6.5
6 4 -7 96.29 5.3
-6 4 7 91.09 5.6
-6 -4 -7 80.39 5.2
-6 -4 -7 94.39 6.1
6 4 -7 83.39 5
6 4 7 84.69 5.5
6 -4 -7 78.69 4.9
-6 -4 7 92.59 5.5
6 -4 -7 86.99 5.2
-6 -4 7 85.49 6
6 -4 -7 79.99 5.4
6 4 7 83.29 4.8
-6 4 -7 80.69 5.2
-6 4 -7 91.39 5.2
7 -4 7 31.4 4.2
7 4 -7 31.3 3.5
-7 4 7 30.9 4.2
-7 -4 -7 30.2 4
7 4 -7 29.4 3.5
-7 4 7 26.1 3.7
7 -4 7 32.4 5
-7 -4 -7 25.1 3.5
-7 4 -7 21.5 3.3
-7 -4 7 28.6 3.7
7 -4 -7 29.6 3.8
7 4 7 33.9 4.7
7 4 7 30.8 4.1
-7 -4 7 28.8 4.3
7 -4 -7 26.8 3.5
-7 4 -7 29.3 3.3
0 -5 7 0.7 1.4
0 5 7 -0.3 0.9
0 -5 -7 -0.7 0.9
0 5 7 0.6 0.9
0 5 -7 -0.4 0.6
0 -5 7 -0.2 1
0 5 -7 -0.2 0.7
0 5 7 -0.3 0.7
0 -5 -7 -0.5 0.8
0 -5 7 -0.9 1
0 -5 -7 0.3 1
-1 5 7 14 1.7
-1 5 7 14.8 2.1
-1 -5 -7 12 2.1
-1 -5 -7 14.2 2
1 -5 7 16.6 2.6
-1 -5 -7 14.8 2
1 -5 7 16.7 2.4
-1 5 7 17.2 2.3
1 5 -7 12.9 1.7
1 5 -7 14.8 1.8
1 -5 -7 17.7 2.3
-1 5 -7 16.2 1.9
-1 5 -7 15.7 1.7
-1 -5 7 21.9 2.6
1 5 7 13.5 1.7
1 -5 -7 15 2
1 5 7 14.3 2.1
-1 -5 7 21.7 2.8
-1 5 -7 14.7 2.2
-2 -5 -7 27.7 2
2 -5 7 25.8 3
-2 -5 -7 24.6 2.7
2 -5 7 26.2 3
-2 -5 -7 28.7 2.8
-2 5 7 27.3 2.7
2 5 -7 30 2.4
-2 5 7 25.2 2.8
2 5 -7 25.2 2.3
2 -5 -7 21.6 2.6
2 -5 -7 27.1 2.5
-2 5 -7 26.2 2.1
-2 5 -7 26.9 2.5
-2 -5 7 19 2.7
2 5 7 26.6 2.7
-2 -5 7 25.8 2.6
2 5 7 28.4 2.6
-2 -5 7 24.1 3
-2 5 -7 26.6 2.3
3 5 -7 135.49 5
3 -5 7 125.79 6
3 -5 7 134.39 6.3
-3 5 7 135.79 6.1
3 5 -7 135.29 5.3
-3 5 7 129.79 6.1
3 5 -7 126.09 5.4
-3 -5 -7 135.39 6.1
-3 -5 -7 123.39 5.8
3 5 7 127.19 5.6
3 -5 -7 129.99 5.5
-3 5 -7 134.89 4.6
-3 5 -7 132.99 5.5
-3 5 -7 132.09 5.4
-3 -5 7 134.19 6.2
3 5 7 136.39 5.8
3 -5 -7 122.49 5.6
-3 -5 7 144.49 5.3
-3 -5 7 129.29 6.2
4 5 -7 6.9 1.7
4 5 -7 9.5 1.7
4 -5 7 9 2.4
-4 -5 -7 10.5 2.4
-4 5 7 10.9 2.4
-4 5 7 7.9 2.2
4 5 -7 9.6 1.9
4 -5 7 13.5 2.6
-4 -5 -7 9.4 2.3
-4 -5 7 10.7 2.5
-4 5 -7 8.5 2
4 -5 -7 6.1 1.7
4 5 7 9 2
-4 -5 7 8.8 2.4
-4 5 -7 9 1.9
4 -5 -7 4.7 1.8
4 5 7 13.4 2.5
5 5 -7 51.69 3.8
-5 -5 -7 52.19 4.6
-5 5 7 44.6 4.2
-5 5 7 55.79 4.4
-5 -5 -7 54.09 4.2
5 -5 7 65.39 4.8
5 -5 7 60.89 5.2
5 5 -7 56.59 4
5 -5 -7 51.79 4.1
-5 -5 7 48 4.7
-5 -5 7 57.99 4.6
5 5 7 57.49 4.4
-5 5 -7 50.19 3.9
-5 5 -7 57.49 4.2
5 -5 -7 51.59 4
5 5 7 60.19 4.1
-6 -5 -7 19 3.1
-6 5 7 17.4 3.2
-6 5 7 16.3 3.3
6 5 -7 19.4 2.8
6 -5 7 11.8 2.9
-6 -5 -7 16.5 3.3
6 -5 7 18.6 3.5
6 5 -7 16.7 2.9
6 5 7 17.4 2.9
6 5 7 16.2 3.3
6 -5 -7 19.1 3.2
-6 -5 7 16.3 3
-6 -5 7 18.8 3.4
-6 5 -7 16.7 2.9
-6 5 -7 17.7 2.9
6 -5 -7 16.2 2.8
7 -5 7 3.3 2.3
-7 5 7 6.1 2.3
-7 5 7 9 2.9
-7 -5 -7 6.3 2.3
7 5 -7 4.7 2.1
7 5 -7 5 2.1
7 -5 7 10.6 3.6
-7 -5 -7 4.7 2.4
-7 5 -7 6.2 2.2
7 -5 -7 6 2.4
7 -5 -7 2.9 2.8
7 -5 -7 5.6 2.3
-7 -5 7 6.7 2.7
-7 -5 7 3.8 2
-7 5 -7 3.9 1.9
7 5 7 4 2
7 5 7 8.1 2.8
0 6 7 -0.3 1
0 -6 -7 -0.6 1.1
0 6 7 -0.4 0.8
0 6 -7 0.3 0.9
0 6 -7 -0.3 0.8
0 -6 7 -0.2 1.5
0 6 -7 -0.5 0.6
0 -6 7 1.3 1.3
0 6 7 -1.4 0.8
-1 -6 -7 62.39 4.1
1 6 -7 64.69 3.5
1 -6 7 69.49 3.5
-1 -6 -7 62.29 3.1
1 -6 7 58.39 4.2
-1 6 7 64.29 4.1
-1 6 7 63.19 3.8
1 6 -7 66.89 3.7
-1 -6 -7 63.79 3.9
1 -6 7 67.39 4.4
1 -6 -7 57.49 4
-1 -6 7 62.79 3.9
-1 -6 7 67.49 4
1 6 7 65.59 4
-1 6 -7 71.69 3.6
-1 -6 7 72.69 4.6
-1 6 -7 62.29 3.2
-1 6 -7 64.99 3.7
1 6 7 70.69 3.5
1 -6 -7 61.69 3.6
-2 -6 -7 127.49 5.8
2 -6 7 133.09 6.3
2 6 -7 123.49 4.8
2 6 -7 125.59 4.8
-2 6 7 120.29 5.7
2 -6 7 130.09 5.9
-2 -6 -7 124.89 5.8
2 6 -7 128.59 5.4
-2 6 7 128.99 5.8
2 6 7 128.29 5.8
-2 6 -7 128.39 5.4
2 -6 -7 124.19 5.8
2 -6 -7 124.69 5.3
-2 -6 7 121.79 5.7
-2 -6 7 128.39 6.2
-2 6 -7 129.49 5.1
2 6 7 127.19 5.3
3 -6 7 22.5 3.3
-3 -6 -7 9.6 2.2
-3 6 7 20.1 2.8
-3 -6 -7 13.5 2.5
3 6 -7 18 2.3
3 6 -7 19.7 2.4
-3 6 7 17.4 2.7
3 -6 7 21.6 3
3 6 -7 18.5 2.1
3 -6 -7 15.3 2.4
3 6 7 23.5 2.7
-3 -6 7 16.6 2.9
3 6 7 18.6 2.7
-3 -6 7 19.9 3
-3 6 -7 20.5 2.6
3 -6 -7 14.5 2.6
-3 6 -7 18.3 2
-3 6 -7 17.5 2.3
-3 -6 7 15.6 2.9
4 -6 7 17.9 3.3
4 -6 7 14.1 2.7
4 -6 7 12.1 2.6
-4 6 7 13.1 2.5
4 6 -7 18.1 2.5
4 6 -7 16.9 2.1
-4 6 7 21 3
-4 -6 -7 19.2 3.3
-4 -6 -7 16.3 2.8
4 6 -7 20.5 2.5
-4 6 -7 19 2.6
4 6 7 17.3 2.9
4 -6 -7 17.2 2.8
-4 -6 7 18.6 3.1
4 -6 -7 16.1 2.7
-4 6 -7 17.5 2.5
4 6 7 15.9 2.6
-4 -6 7 17.7 3.2
-5 -6 -7 175.58 8.2
5 6 -7 160.48 6.8
5 6 -7 178.38 7.2
5 -6 7 176.08 7.4
-5 6 7 182.18 7.8
5 -6 7 159.78 7.4
5 -6 7 178.88 8.6
-5 6 7 168.28 8
-5 -6 -7 161.98 7.3
5 6 7 174.18 7.2
-5 6 -7 158.78 7
5 6 7 164.08 7.3
-5 6 -7 181.48 7.5
5 -6 -7 165.78 7.3
-5 -6 7 177.28 8.1
-5 -6 7 175.58 7.8
5 -6 -7 164.38 7.3
-6 6 7 3.3 2
6 6 -7 1.5 1.4
6 -6 7 1.2 2.6
-6 6 7 2 1.6
-6 -6 -7 2.1 2
6 6 -7 -0.1 1.3
6 -6 7 0.7 1.9
-6 -6 -7 2.8 1.9
-6 6 -7 1.9 1.5
6 -6 -7 0.2 1.6
6 -6 -7 0.8 1.8
-6 -6 7 1.8 2.2
-6 -6 7 3.3 2.2
6 6 7 0.9 1.5
-6 6 -7 2 1.6
6 6 7 2 1.8
-7 -6 -7 1.1 1.8
7 6 -7 3.6 1.9
7 6 -7 3.6 1.8
-7 6 7 4.8 2.5
-7 -6 -7 2.9 2.4
-7 6 7 5.2 2.1
7 -6 7 2.2 2.5
7 -6 7 2.9 2.9
7 -6 -7 3.2 2.1
-7 -6 7 0.4 1.9
-7 -6 7 1.3 2.4
7 6 7 3.3 2
-7 6 -7 2.2 1.8
7 6 7 1.9 2.2
7 -6 -7 1.2 1.9
-7 6 -7 0.4 1.8
0 -7 -7 1.5 1.3
0 7 -7 2.2 1.2
0 7 -7 -2.3 0.7
0 7 7 -0.7 0.9
0 -7 7 0.8 1.7
0 -7 7 3.1 1.7
0 7 7 -1 1.1
1 -7 7 43 3.9
1 -7 7 39.7 3.9
1 7 -7 43.8 3.2
1 7 -7 42.5 3
-1 -7 -7 44.6 3.6
-1 7 7 47.1 3.4
-1 -7 -7 51.09 2.9
-1 -7 -7 46.4 3.8
1 7 -7 51.99 2.9
-1 7 7 50.59 3.8
1 -7 7 53.59 3.3
1 7 7 53.29 3.9
-1 7 -7 42.7 3.1
1 7 7 48.2 3.1
1 -7 -7 46.5 3.3
-1 7 -7 47.3 3.3
-1 -7 7 46.3 4.1
1 -7 -7 49.5 3.9
-1 -7 7 43.2 3.4
1 7 7 47.6 3.1
-1 -7 7 48.5 3.8
-2 -7 -7 22.3 3.1
2 -7 7 18.6 3.2
2 -7 7 23.4 3.2
2 7 -7 19.5 2.4
-2 -7 -7 20.8 2.9
-2 7 7 22.4 2.9
-2 7 7 22 2.8
2 7 -7 19.9 2.2
2 7 -7 19.9 2.2
2 -7 -7 21.1 2.9
2 7 7 23.6 3
-2 7 -7 20.6 2.3
2 7 7 24.1 3.1
-2 -7 7 16 2.9
-2 -7 7 17.7 2.9
-2 7 -7 15.9 2.3
-2 7 -7 18.1 2.3
-2 -7 7 20.7 2.9
2 -7 -7 19.1 2.5
3 7 -7 2.6 1.1
-3 7 7 2.9 1.6
-3 7 7 3.1 1.6
3 7 -7 3.7 1.4
-3 -7 -7 5.4 2.1
-3 -7 -7 8.2 2.2
3 -7 7 6.6 2.2
3 -7 7 0.9 1.9
3 7 -7 3.1 1.3
3 -7 7 4.3 1.8
3 7 7 3.7 1.6
3 -7 -7 3.3 1.8
-3 -7 7 0.4 1.7
3 7 7 4.2 1.6
-3 7 -7 2.9 1.4
-3 7 -7 2 1.3
3 -7 -7 3.5 1.6
-3 -7 7 1 1.7
-4 7 7 36.8 3.7
4 -7 7 37.3 4.5
4 -7 7 34 3.8
4 7 -7 39.9 3.4
-4 7 7 40.2 4
4 -7 7 32.7 3.7
4 7 -7 31.2 3
-4 -7 -7 35.1 4
-4 -7 -7 33.8 3.7
4 -7 -7 39.7 3.7
4 7 7 34.4 3.6
-4 -7 7 29.4 3.9
-4 7 -7 34.1 3.3
4 -7 -7 32.1 3.7
4 7 7 30.7 3.4
-4 7 -7 34.9 3.4
-4 -7 7 37.7 4
5 7 -7 4.1 1.6
-5 7 7 3.4 1.9
-5 -7 -7 2.1 1.8
5 7 -7 4 1.5
-5 7 7 3.3 1.8
5 -7 7 3.4 2.6
-5 -7 -7 -0.9 1.9
5 -7 7 3.4 2.2
5 -7 -7 2.1 1.8
5 -7 -7 -0.5 1.6
5 7 7 3.2 1.7
-5 -7 7 2.4 2.1
-5 7 -7 2.4 1.6
-5 -7 7 1.4 2.1
5 7 7 4 1.9
-5 7 -7 -0.1 1.3
6 -7 7 13.9 3.3
6 7 -7 13.4 2.6
-6 -7 -7 12.2 2.7
-6 7 7 10.5 2.7
-6 7 7 14.8 3.3
-6 -7 -7 13.3 3.4
6 -7 7 12.5 3.5
6 7 -7 12 2.6
6 7 7 12.6 3
6 -7 -7 10.9 2.7
6 7 7 13.1 2.9
-6 -7 7 12.4 3
-6 7 -7 10.9 2.7
-6 7 -7 15.2 3
6 -7 -7 13.7 3
0 8 -7 1 1
0 -8 7 2.5 1.9
0 -8 -7 -0.6 1.1
0 8 -7 0.8 1.1
0 -8 -7 -0.7 1.3
0 8 7 -1.1 1
0 -8 7 2.1 2
0 8 7 0.1 1.3
1 -8 7 58.49 4.8
-1 8 7 60.39 4
-1 -8 -7 63.19 4.4
1 8 -7 66.29 3.8
1 -8 7 60.09 4.7
1 8 -7 63.19 3.9
-1 8 7 55.19 4.1
1 8 -7 71.19 3.5
-1 -8 -7 64.79 4.6
1 -8 -7 60.89 4.6
-1 8 -7 60.09 3.9
1 8 7 57.49 4.3
1 8 7 61.29 4.1
-1 -8 7 64.09 4.6
-1 -8 7 70.89 5
1 -8 -7 61.09 3.7
-1 8 -7 62.09 3.9
2 8 -7 147.49 5.6
-2 8 7 155.98 6.8
-2 -8 -7 137.19 6.6
-2 -8 -7 145.19 6.8
2 8 -7 146.49 5.6
2 -8 7 150.58 6.8
2 -8 7 156.28 7.5
-2 8 7 143.09 6.6
2 8 -7 158.28 6.4
-2 8 -7 148.19 6.3
-2 -8 7 149.39 7.2
-2 8 -7 145.59 5.9
2 -8 -7 144.09 6
2 -8 -7 139.49 6.7
-2 -8 7 153.28 6.8
2 8 7 141.59 6.7
3 -8 7 42.4 4.2
3 8 -7 36.9 3.4
3 -8 7 40.3 3.7
-3 -8 -7 40.3 4
-3 8 7 38.4 3.8
3 -8 7 38.9 4.6
3 8 -7 41.4 3.3
-3 -8 -7 40.9 4.3
-3 8 7 37.9 3.7
3 -8 -7 30.8 3.6
-3 8 -7 39.4 3.3
-3 8 -7 41.9 3.6
-3 -8 7 33.9 4.3
3 8 7 37.6 3.7
3 -8 -7 37.9 3.5
-3 8 -7 36.3 4.6
3 8 7 30.1 3.2
-3 -8 7 33.3 3.7
4 -8 7 8.6 3.1
-4 -8 -7 7.1 2.4
-4 8 7 4.4 1.9
4 8 -7 9.6 2.2
-4 -8 -7 6.5 2.4
-4 8 7 5.8 2
4 8 -7 4.5 1.8
4 -8 7 6.5 2.3
-4 8 -7 4.5 1.8
-4 -8 7 3.3 2.1
4 8 7 7.7 2.1
-4 -8 7 6 2.4
4 8 7 7 2.2
-4 8 -7 6.8 2
4 -8 -7 6.1 2.2
4 -8 -7 10.9 2.6
-5 -8 -7 6.4 2.1
5 -8 7 14.3 3.7
-5 -8 -7 4.7 2.3
-5 8 7 9.1 2.4
5 8 -7 11.5 2.5
5 -8 7 9.2 2.6
-5 8 7 13.4 3
5 8 -7 8.8 2.3
-5 8 -7 10.1 2.5
-5 8 -7 12.1 2.6
5 -8 -7 7.6 2.6
5 8 7 8 2.3
5 8 7 11.2 2.6
-5 -8 7 11.7 3.2
5 -8 -7 6.5 2.3
-6 8 7 7.6 2.5
-6 -8 -7 4.6 2.7
-6 8 7 6.3 2.5
6 -8 7 4.2 3.3
6 8 -7 7.3 2.3
6 -8 7 6.8 2.7
-6 -8 -7 5.7 2.2
6 8 -7 6.7 2.2
6 -8 -7 9.1 2.7
6 8 7 5.5 2.5
-6 8 -7 5.5 2.3
6 8 7 4.1 2.2
6 -8 -7 7.9 2.9
-6 8 -7 7.7 2.5
-6 -8 7 4.5 2.5
0 -9 -7 0.2 1.5
0 -9 7 0.2 1.9
0 9 7 -0.3 1.3
0 -9 7 -0.5 1.9
0 9 -7 1.3 1.3
0 9 7 -0.2 1.2
0 9 -7 0.3 1.2
1 9 -7 28.6 2.8
1 9 -7 26.9 2.9
-1 9 7 26.7 3.2
-1 -9 -7 21.6 3.3
1 -9 7 28.2 3.9
-1 9 7 31.6 3.4
1 -9 7 31.1 4.3
-1 -9 -7 25.7 3.7
-1 -9 7 26.8 3.9
-1 9 -7 25.4 3
-1 9 -7 28 3
1 -9 -7 25.9 3.4
1 -9 -7 29.7 4
1 9 7 28.8 3.5
-1 -9 7 22.9 3.8
2 -9 7 4.9 2.4
-2 9 7 -0.2 1.5
-2 -9 -7 1.7 1.9
-2 9 7 3.9 1.7
2 9 -7 4.5 1.6
-2 -9 -7 3.4 2.1
2 -9 7 2.3 2.4
2 -9 -7 2.9 1.9
-2 9 -7 0.9 1.4
2 -9 -7 0.2 1.2
2 9 7 6.5 2.1
-2 -9 7 3.3 2.4
-2 -9 7 5.2 2.4
-2 9 -7 5.8 1.8
3 9 -7 142.69 6
3 -9 7 148.49 8.1
-3 -9 -7 131.89 7.3
3 9 -7 130.79 6.3
-3 9 7 129.89 6.6
-3 9 7 138.09 7
-3 -9 -7 135.79 6.9
3 -9 7 145.79 6.5
-3 9 -7 131.79 5.8
3 9 7 133.99 6.7
-3 -9 7 139.69 7.4
-3 -9 7 142.29 7
-3 9 -7 136.99 6.5
3 -9 -7 134.99 6.9
3 -9 -7 137.79 6.5
3 9 7 135.19 6.2
-4 -9 -7 30 4.5
4 9 -7 31.5 3.5
-4 -9 -7 30.4 3.9
4 -9 7 27.2 3.9
4 -9 7 31.1 4.8
4 9 -7 32.4 3.3
-4 9 7 32.4 4
-4 9 7 29.7 3.6
-4 -9 7 36.1 4.5
4 -9 -7 27 3.5
4 -9 -7 26.2 3.8
4 9 7 32.6 3.9
4 9 7 29.3 3.6
-4 9 -7 30.3 3.6
-4 9 -7 29 3.3
-4 -9 7 32.3 4.2
5 9 -7 11.6 2.6
-5 9 7 6.9 2.5
5 9 -7 6.2 2.1
-5 -9 -7 1.8 1.8
-5 9 7 5.7 2.2
5 -9 7 4.2 2.4
5 -9 7 4.7 3.2
-5 -9 -7 4.2 2.5
-5 9 -7 5.7 2.1
5 -9 -7 4.4 2.6
-5 -9 7 2.7 2.4
-5 9 -7 7.6 2.3
5 9 7 4.9 2.3
5 9 7 8 2.6
5 -9 -7 7.8 2.4
0 10 -7 -0.6 1.1
0 -10 -7 -1 1.5
0 10 7 -0.7 1.1
0 -10 7 -1.8 1.9
0 -10 7 -1.1 2.1
0 10 -7 0.7 1.4
0 10 7 -2.1 1.3
1 10 -7 -0.5 1.5
1 -10 7 -1.4 2.1
-1 10 7 0.9 1.5
-1 -10 -7 0.2 1.6
-1 10 7 1.7 1.5
1 -10 7 0.7 2.2
1 10 -7 -0.1 1.2
-1 -10 7 0.7 2.2
-1 -10 7 1.8 2.3
-1 10 -7 -0.7 1.3
1 -10 -7 1.6 2
1 10 7 2.2 1.8
-1 10 -7 2.6 1.5
-2 -10 -7 14.9 3.1
2 -10 7 15 3.4
-2 10 7 16.4 3
-2 -10 -7 18.1 3.6
2 10 -7 19.7 2.8
-2 10 7 18 3.1
-2 -10 7 28.7 4.1
2 -10 -7 19.7 3.5
-2 10 -7 17.8 2.7
-2 -10 7 21 3.7
2 -10 -7 21.7 2.9
-2 10 -7 15 2.6
2 10 7 17 3.1
-3 -10 -7 77.79 6.1
-3 -10 -7 89.69 5.8
-3 10 7 77.09 5.6
3 10 -7 82.39 5.2
-3 10 7 76.29 5.3
3 10 -7 82.49 4.6
3 -10 7 77.59 6.4
-3 -10 7 74.99 6
3 -10 -7 77.09 5.1
-3 10 -7 70.39 4.5
-3 10 -7 76.09 5.1
3 10 7 80.99 5.6
-3 -10 7 75.39 5.7
3 -10 -7 83.39 5.8
4 10 -7 24.1 3.2
-4 -10 -7 16.6 3.7
4 -10 7 18.8 4.2
-4 10 7 21.4 3.9
4 10 -7 21 2.9
-4 -10 -7 19.3 3.5
4 -10 7 24.5 3.7
-4 10 7 14.3 2.9
-4 -10 7 24.2 4.1
4 -10 -7 20.8 3.4
4 10 7 24.8 3.8
4 10 7 13.7 2.8
4 -10 -7 18.4 3.6
-4 -10 7 21.6 3.9
-4 10 -7 17 3.2
5 -10 7 6.8 3.4
5 10 -7 6.1 2.1
5 -10 7 8.2 2.9
-5 -10 -7 6.6 2.6
-5 -10 -7 5.4 2.9
-5 10 7 4.3 2.3
5 10 -7 9.6 2.5
5 -10 -7 8 2.8
5 10 7 7.1 2.7
5 10 7 6.5 2.4
5 -10 -7 5.8 2.4
-5 10 -7 3.3 1.9
-5 -10 7 7.9 3
0 -11 -7 2.1 1.9
0 11 7 -0.4 1.3
0 -11 7 1.6 2.7
0 11 7 -1.2 1.5
0 11 -7 -0.1 1.5
0 -11 7 -1.4 2.2
0 11 -7 0.2 1.3
-1 11 7 47.5 4.3
-1 11 7 49.9 4.4
1 11 -7 41.4 4
-1 -11 -7 45.2 4.7
1 -11 7 50.39 5.3
-1 11 -7 41.2 3.8
1 -11 -7 38.8 4.5
-1 -11 7 45.2 5.2
-1 11 -7 45.3 4.1
-1 -11 7 39.7 4.9
1 11 7 39.4 4.4
2 11 -7 31.6 3.6
-2 11 7 30 3.9
-2 -11 -7 29.8 4.5
-2 11 7 33 4
-2 -11 -7 35.1 4.3
2 -11 7 33.9 5.1
-2 11 -7 29.6 3.4
2 11 7 33.3 4.3
2 -11 -7 34.4 4.4
-2 -11 7 30.7 4.7
-2 11 -7 33.6 3.6
-2 -11 7 26.2 4.3
3 -11 7 25 4.7
-3 11 7 24.9 3.7
-3 -11 -7 23.3 3.9
-3 11 7 23.7 3.7
-3 -11 -7 22.2 4.1
3 11 -7 26.7 3.4
-3 -11 7 22.6 4
-3 11 -7 20.3 3.3
3 -11 -7 17.5 3.2
-3 -11 7 25.1 4.2
-3 11 -7 19.7 2.9
3 11 7 27.6 4.1
3 -11 -7 19.7 3.6
4 11 -7 4.5 2
-4 11 7 3.5 2.3
-4 -11 -7 3.4 2.8
-4 -11 -7 4.2 2.4
-4 11 7 3.3 2.4
4 -11 7 2.1 3.1
4 11 7 5.5 2.5
-4 -11 7 1.9 2.8
4 -11 -7 5.5 2.7
-4 11 -7 2.7 1.9
-4 -11 7 6.8 3.2
0 12 7 1.6 2
0 12 -7 -1.9 1.6
0 -12 7 -0.4 2.7
0 -12 -7 1.2 2.1
0 12 7 2.5 1.8
1 12 -7 6.5 2.4
-1 12 7 6.1 2.2
-1 -12 -7 8.9 2.8
1 -12 7 8.3 3.5
-1 12 7 7 2.3
-1 -12 7 11.6 3.6
1 12 7 9 2.9
-1 12 -7 11.7 2.7
-1 12 -7 9.5 2.5
-1 -12 7 8 3.1
1 -12 -7 7.9 2.7
2 12 -7 0.5 1.8
2 -12 7 6.6 3.3
-2 12 7 3.7 2.3
-2 12 7 2.5 2.2
-2 -12 -7 -0.3 2.2
-2 -12 7 -0.4 2.6
2 -12 -7 2.6 2.4
-2 -12 7 4.3 2.7
2 12 7 -2.4 1.9
-2 12 -7 1.8 1.8
-2 12 -7 1.6 1.8
0 0 8 1454.85 28.4
0 0 8 1496.75 26.7
0 0 8 1417.26 28.6
0 0 -8 1501.85 27.8
0 0 -8 1519.45 28.1
0 0 -8 1545.95 27.2
-1 0 -8 1.3 0.9
1 0 8 0.3 1
1 0 8 -0.2 0.9
-1 0 -8 0.6 0.6
1 0 -8 0.9 0.8
1 0 -8 0.7 0.8
-1 0 8 0.7 1
-1 0 -8 0.7 0.9
-1 0 8 1.6 1.1
1 0 -8 0.3 0.8
1 0 8 1 1.1
-2 0 -8 30.1 2.3
-2 0 8 30 2.7
2 0 -8 33 2.2
-2 0 -8 31.3 2.6
2 0 8 30.2 2.5
2 0 8 29.4 2.9
-2 0 8 32.7 3
2 0 -8 28.5 2.4
2 0 -8 31.8 2.5
3 0 8 1 0.9
-3 0 -8 0.5 0.9
3 0 8 2.1 1.3
3 0 -8 1.8 1.1
3 0 -8 -0.2 0.9
-3 0 8 1.8 1.4
3 0 8 1.1 1.2
-3 0 8 -0.4 1.1
-3 0 -8 -0.3 0.9
4 0 8 47.9 3.8
-4 0 -8 60.39 3.4
-4 0 8 59.99 4.4
-4 0 -8 61.29 4
4 0 -8 58.59 3.9
4 0 8 53.69 4.3
-4 0 8 52.79 3.6
4 0 -8 54.09 3.5
5 0 8 -0.2 1.6
-5 0 -8 -1.3 0.8
-5 0 -8 0.4 1.2
-5 0 8 1.3 1.3
-5 0 8 -2.4 1.2
5 0 -8 0 1.1
5 0 8 -1.1 1.3
5 0 -8 -0.9 1
-6 0 8 13.1 2.4
6 0 8 8 2.8
6 0 -8 14.1 2.7
6 0 -8 12.2 2.4
-6 0 8 14.9 3.1
-6 0 -8 10.5 2
-6 0 -8 11.1 2.4
6 0 8 14.4 3.2
7 0 8 -0.8 2.2
-7 0 8 -2.2 1.6
7 0 -8 -0.2 1.3
7 0 8 2.3 2.3
-7 0 -8 0 1.4
7 0 -8 -1.1 1.4
0 -1 -8 168.28 5
0 -1 8 167.08 4.9
0 -1 -8 161.08 5.6
0 -1 -8 160.38 5.5
0 1 -8 171.58 5
0 1 8 160.18 4.6
0 1 8 160.88 5.9
0 -1 8 163.88 5.8
0 1 -8 165.58 5.3
0 1 8 159.68 5.9
0 1 -8 154.88 5.4
0 -1 8 164.08 6.2
1 -1 8 204.58 6.3
-1 1 8 210.08 6.9
-1 1 8 198.28 6.6
-1 -1 -8 197.88 6.5
1 -1 8 204.18 7
1 1 -8 193.28 6.3
-1 -1 -8 210.78 5.2
-1 -1 -8 197.08 6.1
1 1 -8 205.98 5.8
1 1 -8 210.08 6.1
-1 1 8 196.38 7
1 -1 8 199.08 6.2
-1 -1 8 206.78 7
1 -1 -8 203.48 6.1
1 -1 -8 205.28 6.2
1 1 8 204.08 6.6
-1 1 -8 201.08 6.3
-1 1 -8 198.48 5.2
1 1 8 207.18 6.1
1 -1 -8 195.08 6.3
1 1 8 201.78 6.8
-1 -1 8 197.78 6.9
-1 1 -8 195.58 6.3
-2 -1 -8 23.5 2.2
-2 -1 -8 22.7 2.1
-2 1 8 26.2 2.8
2 -1 8 30.2 2.4
2 -1 8 25.3 2.7
2 -1 8 20.6 3
2 1 -8 20.3 2.1
-2 -1 -8 23.8 2.4
2 1 -8 24.8 2.3
-2 1 8 20.8 2.5
-2 1 8 29.1 2.5
2 1 -8 30.2 2.3
2 -1 -8 24.1 2.3
-2 1 -8 19.5 2.1
-2 -1 8 16.4 2.5
2 1 8 22.8 2.5
2 1 8 25.3 2.3
-2 1 -8 23.8 2.3
2 -1 -8 25.8 2.3
2 -1 -8 25.4 2.2
-2 -1 8 25.4 2.7
3 1 -8 153.28 5.9
-3 1 8 150.08 6.7
-3 -1 -8 153.68 6.1
3 -1 8 160.18 6.4
-3 1 8 161.08 6.7
-3 -1 -8 154.98 5.3
-3 1 8 151.48 5.8
3 1 -8 154.28 5.7
3 -1 8 155.78 6.4
-3 -1 -8 154.78 6
3 1 8 162.18 6.4
-3 -1 8 146.39 6.1
-3 1 -8 149.29 5.9
3 1 8 151.48 6.3
-3 1 -8 154.58 5.6
3 -1 -8 157.58 5.3
3 -1 -8 153.28 6
3 1 8 157.28 5.5
-3 -1 8 141.89 6.4
3 -1 -8 155.78 5.9
-4 1 8 43.5 4
4 -1 8 46 3.9
-4 -1 -8 45.6 3
4 1 -8 46.2 3.3
-4 -1 -8 51.09 3.8
-4 1 8 48 4.1
4 1 -8 48 3.5
4 -1 8 42.7 3.9
-4 -1 -8 47.5 3.6
-4 1 -8 46.2 3.1
4 -1 -8 44.2 3.5
4 -1 -8 46.7 3.3
-4 -1 8 45.1 3.6
4 1 8 47.1 3.9
4 1 8 45.2 3.9
-4 1 -8 46.3 3.6
-4 -1 8 52.99 4.2
4 1 8 51.59 3.2
-5 -1 -8 55.79 4.1
5 -1 8 54.09 4.7
5 1 -8 50.59 3.8
-5 -1 -8 46.8 4.1
-5 1 8 48.7 4.6
5 -1 8 48.5 4.2
-5 1 8 49 4.3
5 1 -8 51.69 3.7
-5 -1 8 54.29 4.6
5 1 8 56.39 4.8
5 1 8 48.1 4.2
5 -1 -8 43.4 3.7
-5 1 -8 52.89 3.6
5 -1 -8 48 3.6
-5 -1 8 54.39 4
-5 1 -8 53.79 4.1
-6 -1 -8 3.8 1.9
-6 -1 -8 3.4 1.6
-6 1 8 6.2 2.4
-6 1 8 5.8 2.4
6 1 -8 5.1 1.8
6 -1 8 2.8 2.1
6 -1 8 5 2.4
6 1 -8 4.7 1.6
-6 -1 8 1.5 1.9
6 1 8 3.7 2.4
6 1 8 2.1 1.9
-6 1 -8 6.3 2
6 -1 -8 2.4 1.6
-6 1 -8 2.5 1.3
6 -1 -8 4.5 1.8
-6 -1 8 2 1.5
7 1 -8 2.4 1.7
-7 1 8 1.8 1.9
-7 -1 -8 -1.4 1.8
-7 -1 -8 1.2 1.6
7 -1 8 1.3 2.1
7 -1 8 2 2.7
7 1 -8 3.4 1.6
7 1 8 1.3 2.1
-7 -1 8 0.7 1.5
-7 1 -8 -0.4 1.3
7 -1 -8 2.6 1.9
7 1 8 5.7 2.8
-7 -1 8 -1.2 1.8
7 -1 -8 1.2 1.6
-7 1 -8 2 2
0 2 8 89.49 4.2
0 -2 -8 92.79 4
0 -2 -8 82.69 4
0 -2 -8 93.29 3.7
0 2 -8 95.29 3.7
0 2 8 91.59 3.3
0 2 -8 94.79 4.1
0 -2 8 88.19 4.2
0 -2 8 86.29 4.5
0 2 8 84.29 4.2
0 2 8 95.79 4.1
0 -2 8 94.29 3.8
-1 -2 -8 213.08 6
-1 2 8 194.68 6.5
-1 2 8 197.88 6.9
-1 -2 -8 207.18 5.4
-1 -2 -8 200.78 6.8
1 2 -8 221.68 6.4
-1 -2 -8 212.68 6.3
1 -2 8 219.88 7
1 2 -8 218.48 5.7
1 -2 8 215.68 6.4
1 2 -8 206.28 6.5
-1 2 8 198.28 7
1 2 8 200.28 6.8
1 2 8 213.48 6.3
-1 2 -8 222.58 6.5
1 -2 -8 209.08 6.5
1 -2 -8 195.78 6.5
1 -2 -8 213.18 6.5
1 2 8 212.48 6.9
-1 2 -8 216.08 5.6
-1 -2 8 203.38 7
-1 2 -8 202.78 6.5
-1 -2 8 217.78 5.7
-1 -2 8 212.98 7.3
2 -2 8 46.1 3.3
-2 -2 -8 32.9 2.9
-2 2 8 38.3 3.2
-2 -2 -8 38.7 2.5
-2 2 8 39.4 3.2
-2 -2 -8 40.2 2.8
2 2 -8 40.7 2.8
2 2 -8 35.9 2.7
2 -2 8 37.6 2.5
2 -2 8 40.9 3.3
-2 -2 8 45.6 3.5
2 -2 -8 42.1 3
2 2 8 35 2.8
2 2 8 39.3 3.1
2 -2 -8 36.4 2.7
2 -2 -8 45.2 3.1
-2 2 -8 35.3 2.7
-2 2 -8 40 2.8
-2 -2 8 38.2 3.3
-3 -2 -8 399.96 11.2
-3 -2 -8 399.56 10.8
-3 2 8 401.06 11.8
3 2 -8 404.36 10.4
3 -2 8 401.26 11.4
-3 2 8 396.16 11.6
3 -2 8 403.06 11.5
3 2 -8 393.46 10.6
-3 2 8 416.36 12.9
3 -2 -8 393.56 10.9
-3 -2 8 384.26 11.2
3 2 8 420.76 10.6
3 2 8 412.86 11.3
3 2 8 411.96 11.3
-3 -2 8 402.96 11.7
-3 2 -8 418.36 10.7
-3 2 -8 408.86 10.9
3 -2 -8 411.56 10.8
3 -2 -8 391.86 10.2
-4 -2 -8 26.5 2.9
-4 2 8 25.8 3.2
4 2 -8 24 2.6
4 -2 8 27.1 3.5
-4 2 8 25.9 3.3
-4 -2 -8 24.1 2.9
4 -2 8 23.3 3.1
4 2 -8 25.9 2.5
-4 2 8 22.5 2.5
-4 2 -8 22.9 2.7
4 2 8 20.1 2.8
4 -2 -8 22.7 2.6
4 -2 -8 25.8 2.9
4 2 8 23.4 3.1
-4 2 -8 22.8 2.5
-4 -2 8 21.4 3.4
4 2 8 21.3 2.5
-4 -2 8 25.6 3.1
4 -2 -8 24.3 2.4
-5 2 8 170.28 7.8
-5 -2 -8 180.98 7.4
-5 -2 -8 185.08 7.7
-5 2 8 177.18 8.3
5 2 -8 176.98 6.6
5 -2 8 180.48 7.7
5 -2 8 190.78 8.4
5 2 -8 169.28 7
-5 -2 8 178.28 8
5 -2 -8 182.28 7.1
-5 -2 8 177.58 7.3
-5 2 -8 181.98 7.4
5 2 8 173.88 6.6
5 -2 -8 191.28 7.6
5 2 8 161.58 7.7
-5 2 -8 165.78 6.6
5 2 8 176.48 7.6
-6 -2 -8 9.9 2.4
6 -2 8 12 3.2
6 2 -8 9.9 2
-6 -2 -8 9.1 2.5
6 -2 8 12.6 2.9
-6 2 8 10.9 3
-6 2 8 13.1 3.1
6 2 -8 18 2.8
6 -2 -8 13.9 2.7
6 -2 -8 14.2 2.6
6 2 8 16.7 3.2
-6 -2 8 10.5 2.3
-6 2 -8 14.3 2.8
-6 2 -8 12.8 2.4
6 2 8 17 3.7
-6 -2 8 13.7 3
-7 -2 -8 8 2.5
7 -2 8 4.3 2.9
-7 2 8 8.1 2.9
-7 2 8 7.2 2.5
7 2 -8 8.6 2.4
7 2 -8 9.3 2.3
7 2 -8 5.7 2
-7 -2 -8 10.5 2.9
7 -2 8 11.7 2.9
7 2 8 11.6 3.3
7 -2 -8 5.1 2
-7 2 -8 10.2 2.2
-7 -2 8 6.9 2.2
-7 -2 8 11.1 3
7 2 8 9.4 3
-7 2 -8 9 2.5
7 -2 -8 6.6 2.4
0 3 8 33.2 2.6
0 3 -8 37.3 2.2
0 -3 -8 34.4 2.6
0 -3 -8 33.5 2.8
0 3 8 37.9 3
0 3 8 34.5 2.6
0 -3 8 33.9 2.8
0 3 -8 34.8 2.6
0 -3 8 38.1 3.2
0 -3 8 32.9 2.5
1 3 -8 16.2 1.8
-1 -3 -8 16 1.6
-1 3 8 14.3 2.1
1 -3 8 15.6 2.4
1 3 -8 15.3 1.9
-1 3 8 15.6 2.2
-1 -3 -8 17.7 1.9
-1 -3 -8 15.4 1.8
1 -3 8 13.9 2
-1 -3 -8 15.3 2.2
-1 3 -8 14.2 1.9
1 -3 -8 17.6 2.1
1 3 8 14.3 2.1
-1 -3 8 15 2.4
1 -3 -8 15.6 2
-1 3 -8 13 1.7
-1 -3 8 16.6 1.8
-1 3 -8 18.4 1.6
1 3 8 15.5 2.1
-1 -3 8 20.1 2.7
-2 -3 -8 258.37 8.4
2 -3 8 272.47 8.5
-2 3 8 256.57 8.6
-2 3 8 266.17 7.5
-2 3 8 274.97 8.7
2 -3 8 277.07 8.8
2 3 -8 265.67 7.8
-2 -3 -8 273.37 8
2 3 -8 264.07 7.8
-2 -3 8 279.87 9
-2 3 -8 267.07 8
-2 3 -8 271.37 6.6
-2 3 -8 265.47 7.8
2 -3 -8 247.88 7.8
2 -3 -8 263.67 8
2 3 8 253.57 8
-2 -3 8 261.57 8.6
2 3 8 273.67 8.4
-3 3 8 105.09 5.4
3 -3 8 104.49 5.4
-3 -3 -8 106.79 4.2
3 3 -8 98.19 4.5
3 -3 8 106.19 5.4
3 3 -8 112.19 5
-3 3 8 122.29 5.9
-3 -3 -8 98.79 5
-3 3 8 103.09 4.4
-3 -3 -8 97.59 5.1
-3 -3 8 108.39 5.7
3 3 8 106.59 5.3
-3 3 -8 107.49 4.9
3 3 8 111.99 5
3 -3 -8 103.89 4.8
-3 3 -8 106.09 4.8
-3 -3 8 106.39 5.5
3 3 8 114.19 5.4
3 -3 -8 106.09 4.9
3 -3 -8 97.49 5
-4 3 8 13.6 2.7
-4 -3 -8 10.8 2.2
4 3 -8 8.1 1.7
-4 -3 -8 11.3 1.8
4 -3 8 9.9 2.5
4 -3 8 15.1 2.8
-4 -3 -8 16 2.6
-4 3 8 12.9 2.6
4 3 -8 11.8 2.1
-4 3 -8 8.6 2
4 -3 -8 12.6 2.2
4 -3 -8 9.9 2.1
4 3 8 8.3 2.1
-4 -3 8 12.6 2.7
-4 3 -8 13.7 2.2
4 -3 -8 12.2 2.4
4 3 8 9.4 2
-4 -3 8 14.2 2.8
4 3 8 11.3 2.5
5 -3 8 124.99 7
-5 -3 -8 127.79 6.4
5 3 -8 143.59 6.4
-5 -3 -8 142.39 6.8
-5 3 8 133.59 6.9
-5 3 8 129.39 7
5 -3 8 142.29 6.8
5 3 -8 142.49 5.8
-5 3 -8 140.99 6.1
5 -3 -8 140.89 7.2
5 -3 -8 142.49 6.7
-5 -3 8 129.89 7
5 -3 -8 125.69 6
5 3 8 136.89 6.7
-5 3 -8 145.79 6.6
-5 -3 8 139.99 6.7
5 3 8 135.99 5.8
5 3 8 139.89 7.1
-6 3 8 105.39 6.8
6 3 -8 118.39 5.4
-6 -3 -8 120.59 6.4
-6 3 8 113.79 6.6
-6 -3 -8 110.19 6.5
6 3 -8 118.19 6.1
6 -3 8 109.39 6.5
6 -3 8 123.29 7.5
6 3 8 116.89 6.6
-6 -3 8 115.39 6.9
6 -3 -8 121.29 6.1
6 -3 -8 110.99 6.3
-6 -3 8 103.89 5.9
-6 3 -8 121.39 6.4
-6 3 -8 118.69 5.8
6 3 8 119.79 7.2
7 3 -8 0.7 1.4
-7 3 8 1.6 2.1
-7 -3 -8 1.4 1.7
7 3 -8 3.8 1.8
7 -3 8 3.2 2.2
7 -3 8 4.1 2.8
-7 -3 -8 1.1 1.9
-7 3 8 0.4 1.9
-7 3 -8 -0.2 1.5
-7 3 -8 2.2 1.6
7 3 8 1 2
7 -3 -8 1.1 1.7
-7 -3 8 0.7 1.7
-7 -3 8 0.8 2
7 3 8 3.5 2.5
7 -3 -8 3 1.8
0 -4 8 202.98 7.6
0 -4 -8 213.58 6.5
0 -4 8 204.48 7.5
0 -4 8 218.38 6.8
0 -4 -8 193.78 7
0 4 8 207.58 7.3
0 4 -8 207.68 6.3
0 4 -8 196.08 6.5
0 4 8 202.88 6.6
1 -4 8 60.69 4.1
1 4 -8 63.09 3.5
-1 4 8 61.49 3.2
-1 4 8 63.59 4
-1 -4 -8 68.29 3.5
-1 -4 -8 65.39 3.3
-1 4 8 56.49 3.6
1 -4 8 61.89 3.9
1 4 -8 55.89 3.2
-1 -4 -8 65.69 4
1 -4 -8 61.69 3.5
1 4 8 66.29 3.7
-1 4 -8 56.29 3.4
1 -4 -8 67.79 4
-1 4 -8 69.39 3.2
-1 -4 8 65.49 4
-1 4 -8 65.99 3.2
1 4 8 69.29 4
-1 -4 8 56.09 4.1
-1 -4 8 66.49 3.5
2 4 -8 84.59 4.1
-2 -4 -8 85.59 4.7
-2 4 8 86.39 4.8
-2 -4 -8 97.99 5.5
2 -4 8 84.79 4.9
2 4 -8 86.79 4.2
-2 -4 -8 89.59 4.5
-2 4 8 80.69 4.6
2 -4 8 83.99 4.7
-2 4 8 84.19 3.8
-2 -4 8 87.59 4.8
-2 4 -8 86.79 4.1
-2 4 -8 91.39 3.6
2 4 8 80.49 4.4
-2 4 -8 84.89 4.3
2 4 8 86.79 4.5
-2 -4 8 83.69 5
-2 -4 8 94.79 5.3
2 -4 -8 89.29 4.4
2 -4 -8 96.29 4.7
3 -4 8 29.5 3.4
-3 4 8 24.2 2.9
-3 -4 -8 28.8 2.2
-3 4 8 27.9 3.3
3 -4 8 26.7 3.2
-3 -4 -8 25.4 2.9
-3 -4 -8 24.9 3
3 4 -8 28.6 2.7
3 4 -8 30.7 2.6
-3 -4 8 29.2 3.5
3 -4 -8 26.2 2.8
-3 -4 8 25.9 3.3
-3 4 -8 30 2.7
-3 4 -8 27.3 2.7
3 4 8 30.6 3.1
3 4 8 27.7 2.9
3 -4 -8 33.7 3
4 4 -8 39.5 3
4 -4 8 37.6 4
-4 -4 -8 44 3.8
-4 4 8 47.6 4.1
-4 -4 -8 41.4 3.7
-4 4 8 43.4 3.9
4 4 -8 42.2 3.4
4 -4 8 42.4 4.1
4 -4 -8 45.3 3.4
4 4 8 45.2 3.9
4 -4 -8 45.2 3.5
-4 4 -8 37.2 3.2
-4 -4 8 41.5 4
-4 4 -8 40.5 3.4
4 4 8 48.3 3.6
-4 -4 8 52.69 4.5
5 -4 8 74.79 5.7
5 4 -8 67.39 4.4
5 -4 8 75.99 5.4
-5 4 8 77.29 5.5
-5 4 8 70.19 5.1
-5 -4 -8 78.79 5.3
5 4 -8 82.49 4.3
-5 -4 -8 68.49 4.8
5 4 8 75.59 5.2
-5 -4 8 66.59 4.9
-5 -4 8 72.89 5.5
5 -4 -8 76.39 4.6
-5 4 -8 74.49 4.9
-5 4 -8 69.39 4.5
5 4 8 69.79 4.4
5 -4 -8 75.29 4.8
5 -4 -8 74.99 5.1
6 4 -8 9.4 2.3
-6 4 8 9.4 2.6
6 -4 8 7.3 2.8
6 4 -8 11.3 2.3
6 -4 8 10.6 3.2
-6 4 8 10.4 2.9
-6 -4 -8 17.4 3.3
-6 -4 -8 11.9 2.6
6 -4 -8 11.4 2.7
-6 -4 8 12.1 2.8
6 -4 -8 7.6 2.3
6 4 8 11.1 3
6 4 8 12.3 2.4
-6 -4 8 5.1 2.4
-6 4 -8 10.2 2.5
6 4 8 12.8 3
-6 4 -8 11.8 2.7
-7 -4 -8 13.8 3.3
7 -4 8 17 4.2
7 4 -8 14.7 2.8
-7 4 8 9.6 2.7
-7 -4 -8 8.9 2.6
-7 4 8 10.1 3
7 -4 8 12.9 3.2
7 4 -8 14.2 2.9
-7 -4 8 6.7 2.3
7 -4 -8 7.5 2.5
-7 -4 8 12 3.3
7 4 8 13.4 3.2
-7 4 -8 7.9 2.5
7 4 8 16.7 3.9
7 -4 -8 10 2.6
-7 4 -8 9.5 2.4
0 5 -8 362.86 9.7
0 -5 -8 354.46 9.3
0 5 8 361.56 9.7
0 -5 8 365.96 9.6
0 -5 8 347.97 10.8
0 5 8 362.26 9.4
0 5 8 368.36 10.5
0 -5 -8 364.06 10.5
0 5 -8 363.36 9.4
-1 5 8 56.19 3.9
-1 5 8 56.19 3.1
-1 5 8 54.59 3.6
1 -5 8 51.59 3.8
-1 -5 -8 55.89 5.2
-1 -5 -8 54.89 3.9
1 -5 8 59.39 4.2
1 5 -8 60.19 3.4
1 5 -8 49.9 3.2
-1 -5 8 57.69 3.6
1 5 8 52.19 3.4
-1 -5 8 58.39 3.9
1 -5 -8 62.19 3.6
-1 5 -8 52.09 3.4
1 -5 -8 53.39 3.7
-1 -5 8 54.19 4.2
1 5 8 55.79 3.9
-1 5 -8 57.89 3.1
2 5 -8 52.89 3.3
-2 5 8 48.5 3.7
-2 -5 -8 57.99 3
-2 -5 -8 48.3 3.8
2 -5 8 49.7 4
-2 5 8 55.79 4
2 5 -8 51.59 3.3
2 -5 8 51.39 4.1
-2 -5 -8 45.6 3.4
-2 -5 8 50.39 3.4
-2 5 -8 48.9 3.2
2 5 8 49.2 3.5
2 5 8 52.99 3.8
-2 5 -8 47.5 2.9
-2 5 -8 47.8 3.4
2 -5 -8 46.8 3.4
-2 -5 8 47.3 3.9
-2 -5 8 45.9 4.1
2 -5 -8 51.69 3.8
3 5 -8 46 3.3
-3 5 8 37.4 3.6
-3 -5 -8 36.6 3.5
3 -5 8 41.3 4
3 5 -8 43.6 3
-3 -5 -8 44 3.7
3 -5 8 38.9 3.8
-3 5 8 50.09 4
3 5 8 43.3 3.5
-3 5 -8 36.6 3
3 -5 -8 36.7 3.2
-3 -5 8 42.3 4.1
3 5 8 42.5 3.6
3 -5 -8 45.9 3.6
-3 5 -8 40.7 3.3
-3 -5 8 43.7 4
-4 -5 -8 8.5 2.2
-4 5 8 6.8 2.2
4 5 -8 6.6 1.7
4 -5 8 5.2 2.3
-4 5 8 8.8 2.3
4 5 -8 5.1 1.8
4 5 -8 4.9 1.6
4 -5 8 5.9 2.2
-4 -5 -8 2.3 1.8
-4 5 -8 7.3 2
4 -5 -8 9.6 2.2
-4 -5 8 4.8 2.2
4 5 8 11 2.4
4 -5 -8 3.7 1.7
-4 -5 8 4.5 2
-4 5 -8 8 2
4 5 8 4.5 2
5 -5 8 135.29 7.6
-5 -5 -8 126.89 6.7
5 5 -8 143.39 6.2
5 5 -8 146.49 6.4
-5 -5 -8 139.59 7.2
5 5 -8 140.29 6.5
-5 5 8 136.29 7.4
-5 5 8 124.69 6.7
5 -5 8 147.39 7.2
-5 -5 8 137.29 7.4
-5 5 -8 143.39 6.5
5 5 8 135.59 6.8
-5 -5 8 132.89 6.9
5 -5 -8 140.49 6.7
5 5 8 138.09 6.4
5 -5 -8 144.59 6.6
-5 5 -8 144.49 6.8
6 5 -8 9.2 2.4
-6 5 8 5.3 2.2
-6 -5 -8 7.6 2.7
6 -5 8 5.9 2.8
-6 -5 -8 6.8 2.3
6 -5 8 10.1 2.9
6 5 -8 10 2.5
-6 5 8 6.7 2.5
-6 -5 8 5.1 2.2
-6 -5 8 3.9 2.6
6 5 8 5.9 2.1
6 -5 -8 8.7 2.4
-6 5 -8 7.5 2.3
-6 5 -8 6.4 2.2
6 -5 -8 6 2.3
6 -5 -8 8.2 2.5
6 5 8 8.9 2.8
-7 5 8 3.3 2.4
-7 5 8 6 2.3
7 -5 8 1.3 2.5
-7 -5 -8 4.3 2.3
7 -5 8 6.2 3.3
-7 -5 -8 4.2 2.4
7 5 -8 6.2 2.3
7 5 -8 0.5 1.7
-7 -5 8 2.9 2.1
-7 5 -8 5.6 2.1
7 -5 -8 5.7 2.3
-7 -5 8 7.2 3.1
7 -5 -8 0.9 1.9
7 5 8 3.5 2.8
7 5 8 5.9 2.6
-7 5 -8 4.7 2.4
0 6 8 3.2 1.4
0 -6 -8 6.6 2
0 6 -8 4.4 1.3
0 6 8 3.6 1.3
0 6 -8 5.5 1.5
0 -6 8 6.8 2.2
0 -6 8 2.9 1.6
0 -6 -8 4 1.3
0 6 8 2.1 1.4
1 -6 8 65.09 4.7
1 6 -8 59.99 3.6
1 -6 8 60.69 4.3
-1 -6 -8 57.79 4.2
-1 6 8 54.79 3.8
-1 -6 -8 66.89 3.4
1 6 -8 66.39 3.7
-1 6 8 61.29 4.3
-1 6 -8 63.49 3.5
-1 -6 8 62.69 4.1
1 -6 -8 56.29 4.1
-1 -6 8 61.99 4.6
1 6 8 62.69 4.2
-1 6 -8 55.59 3.7
1 -6 -8 62.69 3.8
2 6 -8 75.29 3.8
2 6 -8 67.29 4
-2 6 8 68.49 4.6
-2 -6 -8 71.99 4.6
-2 -6 -8 64.89 4.2
2 -6 8 72.79 4.9
-2 6 8 69.99 4.4
2 6 -8 69.09 3.8
2 -6 8 79.49 5
2 6 8 72.79 4.6
-2 -6 8 71.49 4.3
-2 -6 8 72.79 5
2 6 8 64.49 4
2 -6 -8 72.29 4.2
-2 6 -8 67.89 3.7
-2 6 -8 63.39 3.6
-2 6 -8 67.79 4.1
2 -6 -8 67.39 4.5
-2 -6 8 78.29 4.7
3 -6 8 89.19 5.8
3 6 -8 88.99 4.7
-3 -6 -8 93.99 5.4
-3 -6 -8 92.09 5.3
3 6 -8 97.59 4.7
3 -6 8 95.99 5.5
-3 6 8 89.59 5.5
3 6 -8 88.09 4.3
-3 6 8 94.69 5.4
-3 -6 8 91.99 5.5
-3 -6 8 93.29 5.8
-3 6 -8 88.99 4.8
3 -6 -8 91.99 5.2
3 -6 -8 93.69 4.9
3 6 8 93.59 5.1
3 6 8 90.39 5.3
-3 6 -8 95.49 4.8
4 6 -8 9.1 1.9
-4 6 8 12.2 2.7
4 -6 8 6.1 2.5
-4 -6 -8 11.2 2.7
-4 6 8 11.7 2.7
4 6 -8 9.8 2.1
-4 -6 -8 11.2 2.6
4 -6 8 9.3 2.7
4 6 -8 10 2.2
4 6 8 9.4 2.3
-4 6 -8 5.3 1.7
-4 -6 8 8.7 2.6
-4 -6 8 11.9 2.8
4 -6 -8 7.9 2.1
-4 6 -8 6.1 1.9
4 6 8 10.3 2.3
4 -6 -8 9.1 2.2
5 6 -8 40.6 3.6
5 -6 8 43.8 4.4
5 -6 8 45 5
-5 -6 -8 44.5 4.3
-5 6 8 33.1 3.9
-5 -6 -8 38.5 4.4
5 6 -8 39.2 3.5
-5 6 8 38.5 4.3
-5 6 -8 38.7 3.7
5 6 8 38.6 3.8
5 -6 -8 38.1 3.8
5 6 8 47 4.3
-5 -6 8 34.3 4.4
-5 -6 8 35 4.3
-5 6 -8 44.6 3.9
5 -6 -8 40 4
-6 6 8 24.8 4
-6 -6 -8 16 3.5
6 6 -8 23.6 3.2
6 -6 8 19.6 4.2
6 -6 8 18.6 3.6
-6 -6 -8 15.4 3.2
-6 6 8 22.7 3.6
6 -6 8 22.6 3.8
6 6 -8 15.3 2.8
6 -6 -8 17.9 3.4
-6 -6 8 16.6 3.5
6 6 8 22 3.4
-6 6 -8 20.2 3.4
6 -6 -8 19.4 3.3
-6 -6 8 11.2 2.9
-6 6 -8 20.3 3.2
6 6 8 20.1 3.6
0 -7 8 318.97 10.4
0 7 8 297.97 9.8
0 7 -8 285.47 8.9
0 -7 8 317.97 10
0 -7 -8 298.37 10
0 7 8 288.57 9
0 7 -8 294.57 8.8
-1 -7 -8 133.09 6.4
1 7 -8 128.79 5.5
1 -7 8 115.09 6.3
-1 7 8 119.69 5.7
1 7 -8 124.99 4.8
-1 7 8 117.49 6
1 -7 8 126.09 6.4
1 7 -8 123.39 5.3
1 -7 -8 124.49 5.4
-1 7 -8 132.09 5.7
-1 -7 8 135.69 6.8
-1 -7 8 132.59 6.1
1 -7 -8 119.09 6.1
-1 7 -8 132.59 5.4
1 7 8 122.09 5.2
1 7 8 122.69 6
2 7 -8 14.3 2.1
2 7 -8 12 2
-2 -7 -8 11.2 2.5
2 -7 8 14.2 3
-2 7 8 15.3 2.7
2 -7 8 16.6 3.1
2 7 -8 13.1 2.3
-2 -7 -8 18.8 2.9
-2 7 8 17 2.7
2 7 8 14.7 2.4
-2 -7 8 12.1 2.5
2 -7 -8 11.1 2.2
2 -7 -8 17.3 2.9
-2 -7 8 7.3 2.5
2 7 8 20.9 3.1
-2 7 -8 11.2 2.2
-3 -7 -8 14.7 2.9
-3 7 8 14.6 2.6
3 7 -8 15.4 2.5
3 -7 8 14.1 2.7
-3 -7 -8 15.6 2.9
3 -7 8 14 2.8
3 -7 8 16.9 3.3
-3 7 8 12.8 2.7
3 7 -8 12.5 2.1
3 7 -8 14.1 2.2
3 7 8 13.4 2.7
-3 -7 8 11.4 2.6
3 -7 -8 13.3 2.7
-3 7 -8 13.6 2.2
3 -7 -8 17.6 2.7
3 7 8 15.3 2.7
-3 -7 8 17 3.2
-3 7 -8 16.4 2.8
-4 7 8 64.89 4.8
4 -7 8 53.99 5.3
4 7 -8 54.39 4.1
-4 -7 -8 56.49 4.7
-4 7 8 52.39 4.7
4 7 -8 49.2 3.8
-4 -7 -8 46.9 4.6
4 -7 8 56.89 4.7
4 -7 8 50.39 4.5
-4 7 -8 58.39 4.3
4 -7 -8 50.39 4.2
-4 -7 8 59.09 5
4 7 8 58.99 4.5
-4 7 -8 57.09 4.2
4 -7 -8 45.9 4.2
-4 -7 8 61.99 5.2
4 7 8 50.09 4.3
-5 7 8 19.4 3.3
5 7 -8 16.5 2.9
5 -7 8 10.7 2.8
5 -7 8 17.5 3.8
-5 -7 -8 15.9 3.6
-5 -7 -8 12 2.8
-5 7 8 16 3.4
5 7 -8 14.5 2.7
5 -7 8 18.2 3.4
5 -7 -8 16.2 3.2
5 -7 -8 14.1 3.1
5 7 8 14.3 2.8
-5 -7 8 12 3.1
-5 7 -8 17.9 3.2
-5 -7 8 9.8 3
5 7 8 13.3 3
-5 7 -8 16.9 2.9
6 7 -8 1.5 1.4
-6 -7 -8 0.7 1.8
-6 7 8 3 2.2
-6 7 8 -0.7 1.6
6 -7 8 -3.3 1.8
-6 -7 -8 -0.1 1.9
6 7 -8 0.7 1.4
6 -7 8 1.5 2.7
6 -7 -8 0.7 1.8
6 -7 -8 1.1 1.9
6 7 8 1.5 2
-6 -7 8 -4.7 2.1
6 7 8 -0.1 1.7
-6 -7 8 2.9 2.1
-6 7 -8 -0.4 1.5
-6 7 -8 3.2 2
0 -8 8 153.48 7.2
0 8 8 148.19 6.2
0 8 8 140.09 6.7
0 8 -8 145.59 6
0 8 -8 144.19 6
0 -8 8 140.59 6.8
0 -8 -8 121.69 6.5
1 -8 8 109.79 6.4
-1 8 8 116.09 5.8
1 8 -8 120.09 5.6
-1 -8 -8 112.79 6.2
-1 8 8 117.49 6.2
1 -8 8 130.39 6.8
1 8 -8 115.19 5.3
1 8 8 113.29 6.1
1 -8 -8 118.19 5.4
-1 8 -8 108.49 5.4
-1 -8 8 120.69 6.7
1 -8 -8 123.49 6.4
-1 8 -8 120.09 5.5
-1 -8 8 128.09 6.4
2 8 -8 26.9 3
-2 -8 -8 29.9 3.8
-2 8 8 23.8 3.2
2 8 -8 25.5 2.9
-2 8 8 23.1 3.2
2 8 -8 27.1 2.7
-2 -8 -8 19.8 3.1
2 -8 8 23.2 3.8
2 -8 8 22 3.6
2 -8 -8 19.5 3.1
-2 -8 8 28.5 4
-2 8 -8 24.1 2.9
2 8 8 24.9 3.4
-2 8 -8 20.8 2.7
-2 -8 8 17.9 3.2
-2 -8 8 20.3 3.2
2 -8 -8 22.6 2.8
3 -8 8 14.5 3.3
-3 -8 -8 5.5 2.2
3 8 -8 6.2 1.8
-3 -8 -8 10 2.6
3 8 -8 7.3 1.7
3 -8 8 9.1 2.8
3 -8 8 8 2.3
-3 8 8 8.9 2.4
-3 8 8 9.6 2.5
-3 -8 8 7.7 2.6
3 8 8 9.4 2.3
3 -8 -8 11.2 2.3
3 -8 -8 7.2 2.4
3 8 8 5.6 2.1
-3 8 -8 10 2.6
-3 -8 8 8.6 2.5
-3 8 -8 11.5 2.4
4 8 -8 3.1 1.4
4 -8 8 3 2.6
4 -8 8 0.4 2.2
-4 8 8 1.3 1.8
-4 8 8 1.2 1.8
4 8 -8 0.2 1.1
-4 -8 -8 1.5 1.9
4 -8 8 4.9 2.3
-4 -8 -8 2.4 1.9
-4 -8 8 -1.3 1.8
-4 8 -8 0.2 1.5
4 8 8 4.7 2
-4 -8 8 4 2.5
-4 8 -8 0.8 1.5
4 8 8 3.2 2.1
4 -8 -8 3 2.1
4 -8 -8 2.9 1.9
-5 8 8 7.9 2.3
-5 8 8 9.9 2.9
-5 -8 -8 9.9 3
5 8 -8 10.3 2.5
5 8 -8 8.6 2.2
5 -8 8 6.3 2.7
5 -8 8 8.6 3.4
-5 -8 -8 6.8 2.4
5 -8 -8 6.3 2.5
5 8 8 6.8 2.3
-5 -8 8 10.6 3
5 8 8 10.3 2.7
-5 8 -8 13.1 2.9
-5 8 -8 8.6 2.5
5 -8 -8 9.1 2.7
0 9 8 64.79 4.9
0 9 -8 64.69 4.3
0 9 8 65.99 4.4
0 -9 8 74.59 5.3
0 -9 -8 61.39 5
0 9 -8 65.99 4.2
0 -9 8 65.49 5.4
-1 -9 -8 3.4 2.1
1 -9 8 0 2.1
-1 9 8 -0.1 1.5
1 9 -8 0.5 1.2
1 -9 8 4.8 2.4
-1 9 8 1 1.4
1 9 -8 1.7 1.3
1 -9 -8 0.9 1.5
1 9 8 2.5 1.7
-1 9 -8 -1.4 1.2
-1 -9 8 -1.6 2
-1 9 -8 0.4 1.2
1 -9 -8 0 1.6
-1 -9 8 4.4 2.2
2 9 -8 26 3.1
2 -9 8 18.5 3.5
-2 -9 -8 18 3.2
-2 9 8 15.6 3
2 -9 8 17.7 3.7
-2 9 8 18.2 3.2
-2 9 -8 17.9 2.8
-2 -9 8 13.8 3
2 9 8 15.4 3.1
2 -9 -8 17 2.8
-2 -9 8 18.3 3.7
2 -9 -8 16.1 3.1
-2 9 -8 16 2.6
-3 9 8 21.1 3.4
3 9 -8 24.8 2.9
-3 9 8 23.3 3.5
-3 -9 -8 18.3 3.5
3 -9 8 27.6 4.8
3 -9 8 21.1 3.7
-3 -9 -8 21.7 3.6
3 9 -8 22.9 3
3 -9 -8 24.4 3.7
3 9 8 23.8 4.4
3 -9 -8 19 3.1
-3 -9 8 26.7 4
-3 9 -8 21.3 3.1
3 9 8 20.6 3.6
-3 -9 8 27.3 4.5
-4 9 8 0.7 1.6
4 -9 8 1.9 2.2
-4 -9 -8 6.1 2.5
-4 -9 -8 2.5 2.1
-4 9 8 3.3 2.1
4 -9 8 1.6 2.9
4 9 -8 2.6 1.6
4 9 -8 2.2 1.6
4 -9 -8 0 1.6
4 9 8 6.6 2.5
4 -9 -8 2.8 2.2
-4 -9 8 3.1 2.5
4 9 8 4.9 2.1
-4 9 -8 5.1 2
-4 9 -8 4 1.9
5 -9 8 9.6 3.7
5 9 -8 4.5 1.9
-5 -9 -8 9.1 3.1
5 9 -8 5.8 2.1
-5 -9 -8 5.7 2.5
-5 9 8 5 2.4
-5 9 8 5.3 2.2
5 -9 8 4.4 2.7
-5 9 -8 6.1 2.4
5 -9 -8 7.5 2.8
5 -9 -8 6.6 2.4
-5 9 -8 8.1 2.4
-5 -9 8 11.3 3.2
5 9 8 4.4 2.3
5 9 8 6.5 2.4
0 -10 8 46 5.1
0 10 -8 47.1 3.7
0 -10 -8 50.69 4.8
0 -10 8 46.1 5
0 10 8 48.6 4.6
0 10 -8 44.3 4
1 -10 8 27.5 4.5
-1 -10 -8 24.1 3.9
1 -10 8 23 3.7
1 10 -8 22 2.8
-1 10 8 20.8 3.3
1 10 -8 21.5 3
-1 10 8 22.1 3.2
1 -10 -8 16.3 3.3
-1 10 -8 25 3.2
-1 -10 8 16.3 3.3
1 10 8 22.3 3.5
-1 10 -8 29.1 3.4
-1 -10 8 22.6 3.9
2 -10 8 3.5 3.3
-2 -10 -8 5.7 2.6
-2 10 8 8.2 2.5
2 -10 8 10.8 3.3
-2 10 8 9.8 2.6
2 10 -8 5.2 1.8
-2 -10 8 7.5 2.7
2 -10 -8 8 2.2
2 10 8 7 2.7
-2 10 -8 7.5 2.1
2 -10 -8 6.5 2.5
-2 10 -8 7.2 2.3
-2 -10 8 5.8 3.1
3 -10 8 21 4.4
-3 -10 -8 25 4.1
-3 10 8 25.1 3.7
-3 10 8 24.5 3.8
3 10 -8 25.9 3.4
3 10 -8 25.9 3.5
-3 -10 -8 30.2 4.5
3 -10 -8 20.2 3.8
-3 -10 8 26.8 4.2
3 10 8 28.2 4.2
-3 -10 8 25.1 4.3
-3 10 -8 23.1 3.3
3 -10 -8 15.9 3
4 10 -8 31.2 3.5
-4 10 8 39.3 4.7
-4 -10 -8 38.8 4.9
4 -10 8 33.5 5.5
-4 10 8 37.7 4.3
-4 -10 -8 37.3 4.4
4 10 -8 40 4
4 10 8 40.8 4.7
4 -10 -8 38.1 4.5
-4 10 -8 35 4.2
4 -10 -8 34.9 4
-4 -10 8 42.7 5.2
0 11 -8 0.4 1.8
0 -11 8 6.4 3
0 -11 8 2.3 2.8
0 11 8 3.3 2.2
0 -11 -8 2.6 2.2
0 11 -8 5.7 2.1
-1 11 8 5.2 2.1
-1 11 8 1.4 1.9
-1 -11 -8 5.3 2.7
1 11 -8 5.8 2.2
1 -11 8 0.3 2.4
-1 11 -8 4.2 2
-1 -11 8 -0.1 2.6
-1 -11 8 4.9 3
1 11 8 1.7 2
-1 11 -8 2.8 1.7
1 -11 -8 1.1 2
2 11 -8 3 2
-2 -11 -8 2.3 2.2
2 -11 8 1.2 2.9
-2 11 8 0.2 1.9
-2 11 8 1.9 2.1
-2 -11 8 2.6 2.5
2 -11 -8 3.8 2.5
2 11 8 -1.1 1.8
-2 11 -8 1.3 1.7
-2 11 -8 3.2 1.9
-2 -11 8 0.4 2.6
-3 -11 -8 1.3 2.3
3 11 -8 0.5 1.6
-3 11 8 2 2.2
-3 11 8 2.2 2.2
3 -11 8 -0.9 3
-3 11 -8 3 2.2
3 -11 -8 1.8 1.8
-3 11 -8 0 1.7
3 11 8 4.7 2.6
-3 -11 8 3.7 2.7
-3 -11 8 0.8 2.7
3 -11 -8 1.2 2.1
0 0 -9 0.1 0.8
0 0 9 1.5 1.2
0 0 9 0.6 1.1
0 0 -9 0.7 0.7
0 0 -9 -0.2 0.8
1 0 -9 0.1 0.9
1 0 9 -1.1 0.9
-1 0 -9 0.1 0.9
-1 0 -9 -0.4 0.8
1 0 -9 0 0.8
1 0 -9 0.6 0.8
-1 0 9 1 1.2
1 0 9 -1.2 0.9
-1 0 9 -0.2 1.1
1 0 9 -0.4 0.9
-1 0 -9 -0.1 0.8
-2 0 -9 90.29 4.2
2 0 -9 83.99 4.2
2 0 -9 79.29 3.9
-2 0 9 78.29 4.5
2 0 -9 86.89 4.3
-2 0 -9 83.29 4.4
2 0 9 81.19 4.1
-2 0 9 73.59 4.6
2 0 9 92.19 4.9
-3 0 9 -0.8 1.3
-3 0 9 -0.8 1.1
3 0 9 1 1.3
3 0 9 -1.8 1.1
-3 0 -9 0.1 0.9
-3 0 -9 -0.5 0.9
3 0 -9 0.3 1
3 0 9 0.3 1.1
3 0 -9 0.7 1
-4 0 9 114.29 5.6
4 0 -9 110.59 5.5
-4 0 -9 112.79 5.7
-4 0 -9 110.19 4.9
-4 0 9 111.59 6.2
4 0 9 115.49 6
4 0 -9 110.89 5.3
4 0 9 126.09 6.4
5 0 9 -0.5 1.6
-5 0 -9 -0.2 0.9
-5 0 9 -2.2 1.4
5 0 -9 0.3 1.1
5 0 9 -1.3 1.6
-5 0 -9 1.8 1.4
5 0 -9 0.2 1.2
-5 0 9 -0.4 1.2
-6 0 -9 1.6 1.6
-6 0 9 1.5 2.1
6 0 9 1.6 2.1
6 0 9 -1.1 1.8
6 0 -9 2.5 1.5
-6 0 9 1.3 1.5
-6 0 -9 1.1 1.3
6 0 -9 0.8 1.6
7 0 -9 0.4 1.4
-7 0 9 -1.3 1.7
7 0 9 4 2.7
-7 0 -9 0.2 1.5
7 0 9 1.5 2.5
7 0 -9 2.7 1.6
0 1 9 -1.3 0.9
0 -1 -9 -0.4 0.7
0 -1 9 0.4 1.2
0 1 -9 0.2 0.8
0 1 9 -0.2 0.9
0 -1 9 -0.5 1.1
0 -1 -9 -0.3 0.8
0 1 -9 -0.3 0.7
0 1 -9 -0.7 0.6
0 -1 -9 0.6 0.9
1 1 -9 60.29 3.3
1 -1 9 61.99 4.1
-1 1 9 61.89 4
1 1 -9 57.69 3.5
1 1 -9 66.09 3.2
1 -1 9 60.99 3.7
-1 -1 -9 71.49 3.6
1 -1 9 59.19 3.4
-1 1 9 56.19 3.7
-1 -1 -9 64.89 3.7
1 -1 -9 62.39 3.4
1 -1 -9 63.89 3.5
-1 1 -9 59.99 2.7
-1 1 -9 65.09 3.6
1 1 9 64.19 4
-1 -1 9 58.99 4
1 -1 -9 58.79 3.5
-1 -1 9 61.09 4
1 1 9 76.19 3.6
1 1 9 65.89 3.8
-1 1 -9 58.99 3.4
-2 -1 -9 87.39 4.6
2 1 -9 88.39 4.2
2 -1 9 81.09 4.7
-2 1 9 87.69 4.9
-2 1 9 75.69 4.3
2 -1 9 90.89 4.2
-2 -1 -9 88.79 4
2 1 -9 77.49 4.1
-2 1 9 86.89 4.9
-2 1 -9 80.79 4.3
2 -1 -9 86.89 4
2 1 9 89.79 4.4
-2 -1 9 81.99 4.9
-2 1 -9 81.99 4.1
2 -1 -9 80.39 4.2
2 1 9 88.59 4.8
-2 -1 9 79.69 4.7
2 -1 -9 80.89 4.2
2 1 9 85.19 4.4
-3 1 9 149.88 6.9
3 1 -9 147.79 5.9
-3 1 9 149.19 6.8
-3 -1 -9 148.19 6.3
3 -1 9 142.59 6.6
3 1 -9 161.58 6.2
-3 1 9 149.09 6
3 -1 9 151.78 6.6
-3 -1 -9 148.49 5.5
-3 1 -9 145.39 5.7
3 -1 -9 156.48 6.2
3 1 9 147.49 6.4
3 1 9 149.29 6.6
3 1 9 142.39 5.6
-3 1 -9 149.39 6.2
-3 -1 9 145.19 6.8
3 -1 -9 149.39 6
-3 -1 9 150.78 6.5
-4 -1 -9 166.28 7.1
-4 -1 -9 160.98 6
4 -1 9 173.58 7.5
-4 1 9 168.78 7.8
-4 1 9 151.68 8.9
4 1 -9 163.78 6.4
-4 -1 -9 172.48 6.9
-4 1 9 155.68 7.4
4 -1 9 175.18 7.5
4 1 -9 160.98 6.7
-4 1 -9 165.18 6.3
-4 1 -9 168.38 7
4 -1 -9 167.58 6.9
4 1 9 162.28 7.2
-4 -1 9 168.48 7.7
4 1 9 168.28 7.4
-4 -1 9 165.18 6.9
4 -1 -9 173.68 6.8
5 -1 9 2.5 2
-5 1 9 1.1 1.9
-5 -1 -9 -0.1 1.3
-5 -1 -9 -0.6 1.4
-5 1 9 3.9 1.9
5 1 -9 2.8 1.6
-5 -1 -9 1.7 1.7
5 1 -9 0.2 1.2
5 -1 9 2.1 1.9
-5 -1 9 0.7 1.5
5 1 9 2.4 2.1
5 -1 -9 4.5 1.7
5 -1 -9 0.2 1.2
5 1 9 4.2 2.2
-5 1 -9 2.1 1.5
-5 1 -9 1.3 1.2
-5 -1 9 0.5 1.8
-6 -1 -9 21.9 3.3
-6 -1 -9 22.6 3.6
6 -1 9 20.1 3.9
6 1 -9 23.7 3.3
-6 1 9 27.2 4.3
6 1 -9 21.6 2.9
6 -1 9 25.2 3.9
6 1 9 19.2 3.6
-6 1 -9 22.5 2.8
-6 -1 9 24.1 3.3
6 -1 -9 18.6 3.1
-6 -1 9 25.5 4
6 1 9 23.9 3.9
6 -1 -9 22.1 3.1
-6 1 -9 24.8 3.4
7 1 -9 8.4 2.4
-7 1 9 16.8 3.5
7 -1 9 15.9 3.6
-7 -1 -9 9.1 2.6
7 1 -9 11.1 2.8
7 -1 9 14.4 3.6
-7 1 -9 10.2 2.6
-7 -1 9 8.5 2.9
7 -1 -9 7.9 2.3
-7 -1 9 12.2 2.8
7 1 9 21 4.1
7 1 9 9.4 3
7 -1 -9 9.6 2.7
0 -2 -9 0.8 0.9
0 -2 -9 0.5 0.8
0 -2 9 -0.2 1.2
0 2 -9 -0.2 0.8
0 2 9 -0.4 1
0 2 -9 0.2 0.8
0 -2 -9 -0.1 0.9
0 2 9 -0.6 0.9
0 -2 9 0.4 1.1
0 2 -9 0.7 0.9
0 -2 9 0.6 1.1
0 2 9 -1.4 0.9
-1 2 9 59.39 3.6
-1 -2 -9 49.2 3.1
-1 2 9 52.79 3.7
1 2 -9 51.49 3.3
1 2 -9 55.39 3.1
1 -2 9 59.49 3.5
-1 -2 -9 56.29 3.6
1 -2 9 56.79 3.5
1 -2 9 60.59 4.1
-1 2 9 46.7 3.6
1 2 9 51.59 3.6
-1 -2 9 62.19 4.1
1 -2 -9 68.59 4
-1 2 -9 53.79 3.2
-1 -2 9 56.59 4
1 -2 -9 54.09 3.4
1 -2 -9 55.89 3.4
-1 2 -9 56.59 2.7
-1 2 -9 53.19 3.3
1 2 9 61.49 3.3
1 2 9 56.79 3.7
-2 -2 -9 4.3 1.3
-2 2 9 6.6 1.9
2 -2 9 3.5 2
2 2 -9 5.8 1.5
-2 -2 -9 3.5 1.5
2 -2 9 5 1.8
-2 2 9 0.4 1.3
2 2 -9 4.4 1.4
-2 -2 -9 4.6 1.4
-2 2 9 3.4 1.9
2 2 9 8.5 2
2 2 9 3.3 1.4
-2 2 -9 2.7 1.2
2 -2 -9 2.9 1.3
2 2 9 4.6 1.6
-2 -2 9 6.5 1.9
2 -2 -9 3 1.2
-2 2 -9 4.7 1.4
-2 -2 9 9.2 2.2
2 -2 -9 6.2 1.6
-3 -2 -9 35.7 3.3
3 -2 9 28.8 3.5
-3 -2 -9 32.6 2.6
-3 2 9 32 3.5
3 -2 9 32 3.3
-3 -2 -9 34.2 3
3 2 -9 31.6 2.9
3 2 -9 37.9 3.1
-3 2 9 37 3.8
3 -2 -9 39.4 3.3
-3 -2 9 32.4 3.6
3 2 9 29.8 2.9
-3 2 -9 31.8 3
-3 -2 9 33.3 3.4
3 -2 -9 31 3
3 -2 -9 29.6 2.7
3 2 9 31.3 3.2
-3 2 -9 34 3
3 2 9 31.3 3.3
-4 2 9 35.1 3.9
-4 2 9 29.9 2.9
4 2 -9 40.1 3.3
-4 -2 -9 30 3.4
4 2 -9 30.8 2.9
-4 2 9 34 3.9
4 -2 9 34.9 3.9
4 -2 9 33.4 3.9
-4 -2 -9 36.3 3.5
4 2 9 35.8 3.7
4 2 9 32.9 3
-4 2 -9 30.5 3.1
4 -2 -9 36.1 3.4
-4 -2 9 37 3.7
4 -2 -9 33.7 3.2
-4 -2 9 24.3 3.8
-4 2 -9 35 3.1
4 2 9 34.1 3.7
5 -2 9 71.49 5.2
-5 -2 -9 65.59 4.7
5 2 -9 67.39 4.5
5 2 -9 66.89 4.2
-5 2 9 67.29 5.3
5 -2 9 70.59 5.5
-5 2 9 65.59 5.4
-5 -2 -9 67.29 4.8
-5 -2 9 73.19 5
-5 2 -9 58.89 4.1
-5 2 -9 62.69 4.6
5 2 9 66.29 5
-5 -2 9 61.49 5.3
5 -2 -9 66.79 4.7
5 -2 -9 68.69 4.5
5 2 9 74.89 5.4
6 2 -9 4.9 1.9
6 -2 9 13.5 3.1
-6 -2 -9 9 2.3
-6 2 9 8.1 2.9
-6 -2 -9 5.1 2.2
6 2 -9 6.4 1.8
6 -2 9 10.6 3.5
-6 2 9 7.2 2.5
-6 2 -9 5.1 1.9
6 2 9 12.8 3.2
-6 2 -9 8.1 2.3
6 2 9 7.8 2.8
6 -2 -9 7.1 2.2
6 -2 -9 8.1 2.3
-6 -2 9 9.8 3.2
-6 -2 9 7.3 2.3
7 2 -9 9.2 2.2
-7 -2 -9 9.3 2.7
-7 2 9 6.9 2.9
7 -2 9 9.7 3.7
-7 2 9 16.6 3.6
7 2 -9 16.5 3.2
-7 -2 -9 13 3.2
7 -2 9 13.5 3.5
-7 -2 9 12.4 3.4
7 -2 -9 16.3 3.2
-7 2 -9 15.9 3.2
7 -2 -9 19.8 3.4
-7 2 -9 11.7 2.5
7 2 9 14.3 4.1
-7 -2 9 8.6 2.4
7 2 9 13.9 3.5
0 3 -9 0.3 1
0 3 9 1.6 1.2
0 -3 9 -1.1 1.2
0 -3 -9 0.2 0.9
0 -3 9 -1.8 0.9
0 -3 -9 -0.9 0.7
0 3 9 0 1
0 -3 -9 1.5 1.2
0 -3 9 -0.4 1.3
0 3 9 0.6 1.2
1 -3 9 93.29 5.1
-1 -3 -9 88.69 4.7
1 -3 9 77.29 6.4
-1 -3 -9 79.19 3.9
-1 3 9 89.09 4.7
-1 3 9 82.19 4.8
1 3 -9 86.69 4
1 -3 9 86.19 5.1
1 3 -9 84.29 4.2
-1 -3 9 94.99 5.3
1 -3 -9 86.89 4.3
-1 3 -9 94.09 4.5
1 -3 -9 89.19 4.4
1 3 9 85.39 4.6
1 3 9 76.69 4.3
-1 3 -9 83.39 3.9
-1 -3 9 91.19 4.8
1 -3 -9 86.59 4.5
-1 3 -9 91.09 3.6
2 3 -9 84.19 4.3
-2 -3 -9 91.59 4.4
2 -3 9 91.19 4.9
-2 -3 -9 83.59 4.8
2 3 -9 88.09 4.3
-2 -3 -9 92.99 4.1
-2 3 9 83.69 4.9
-2 3 9 90.39 4.5
-2 3 9 86.59 5.1
2 -3 9 89.19 5.3
2 3 9 88.89 4.8
2 3 9 97.39 4.9
-2 3 -9 87.49 4.5
-2 -3 9 77.59 4.9
2 -3 -9 88.99 4.5
2 -3 -9 94.89 4.7
2 3 9 85.19 4.5
-2 3 -9 89.59 4.4
-2 -3 9 93.99 5.2
2 -3 -9 91.79 4.7
3 -3 9 23.3 3.3
3 3 -9 17.4 2.3
3 3 -9 24.5 2.6
-3 3 9 23.9 2.6
-3 -3 -9 19.4 2.8
3 -3 9 17.6 2.9
-3 3 9 23.2 3.1
-3 -3 -9 18.1 2.6
-3 3 9 17.7 3
-3 -3 9 21 3.1
3 3 9 15.7 2.6
-3 3 -9 19.9 2.5
3 -3 -9 15.4 2.4
3 -3 -9 18.5 2.4
3 -3 -9 21.1 2.6
3 3 9 16.9 2.5
3 3 9 17.2 2.9
-3 3 -9 23.4 2.6
-3 -3 9 21.1 3.3
4 3 -9 91.69 5.1
-4 3 9 96.49 5.9
-4 3 9 92.59 5.7
4 -3 9 98.19 5.9
-4 -3 -9 89.19 5.4
-4 -3 -9 89.69 5.2
4 -3 9 86.69 5.5
4 3 -9 91.09 4.8
4 -3 -9 104.79 5.3
-4 -3 9 93.89 5.7
4 3 9 97.69 5
4 3 9 90.39 5.5
-4 3 -9 94.79 5.1
-4 -3 9 97.49 6
4 3 9 110.09 5.9
-4 3 -9 100.19 5.1
4 -3 -9 94.59 4.8
4 -3 -9 97.59 5.4
-5 -3 -9 21.1 3.2
5 3 -9 23.3 3
5 -3 9 25.3 3.9
-5 -3 -9 26 3.3
5 3 -9 25.3 2.8
-5 3 9 21.5 3.4
5 -3 9 25.5 3.9
-5 3 9 22.1 3.6
5 3 9 20.6 3.5
5 -3 -9 23.6 3.3
-5 3 -9 17.3 2.7
5 3 9 26.4 3.7
5 3 9 27.2 3.2
-5 -3 9 20.4 3.6
5 -3 -9 24.2 3.1
-5 -3 9 35.9 4.4
-5 3 -9 26.2 3.2
-6 -3 -9 87.79 6
6 3 -9 80.49 5.3
-6 -3 -9 81.29 5.6
-6 3 9 84.49 6.4
6 3 -9 81.79 4.8
6 -3 9 93.69 6.8
-6 3 9 81.39 6
6 -3 9 83.09 6
-6 -3 9 79.79 5.4
6 3 9 92.29 6.5
6 -3 -9 86.59 5.4
-6 -3 9 89.69 6.4
6 3 9 76.29 5.9
-6 3 -9 85.69 5.6
-6 3 -9 83.09 5.1
6 -3 -9 78.49 5.5
-7 -3 -9 1.1 1.8
7 3 -9 1.7 1.8
7 3 -9 -1.4 1.4
-7 -3 -9 2.9 2.1
7 -3 9 5.9 2.8
-7 3 9 1.3 2.1
-7 3 9 -0.2 1.9
7 -3 9 3.5 2.9
-7 3 -9 1.7 1.7
7 -3 -9 1.2 1.8
-7 3 -9 2.1 1.8
7 -3 -9 0.1 1.7
-7 -3 9 1.1 1.9
7 3 9 0.9 2.6
7 3 9 1.4 2.3
-7 -3 9 4.6 2.7
0 4 9 1.3 1.6
0 4 9 0.1 1.2
0 -4 9 1.8 1.6
0 -4 -9 -0.1 1.1
0 -4 9 0.3 1.3
0 -4 9 0 1.2
0 4 9 0.4 1
0 -4 -9 -0.1 0.9
0 4 -9 0.2 1.1
0 4 -9 -0.9 0.6
1 -4 9 164.98 7.1
-1 4 9 165.38 6
1 4 -9 176.58 6.1
1 4 -9 163.68 6.1
-1 -4 -9 169.28 5.9
-1 4 9 157.58 6.8
-1 4 9 172.48 6.6
-1 -4 -9 158.78 6.6
-1 4 -9 170.58 5.5
1 4 9 174.88 6.5
-1 4 -9 157.78 6.2
-1 -4 9 178.98 6.8
1 -4 -9 176.38 6.3
-1 4 -9 164.28 5.7
-1 -4 9 174.38 7.4
1 -4 -9 169.58 6.7
1 4 9 182.38 6.9
-2 -4 -9 25.4 3
2 4 -9 24.8 2.5
-2 4 9 26 3
2 4 -9 24.2 2.5
2 -4 9 29.7 3.2
-2 -4 -9 24.7 3.2
2 -4 9 21.2 3.2
-2 4 9 26.1 3.1
-2 4 9 25.9 3.1
-2 -4 9 19.8 3.1
-2 4 -9 22.8 2.6
2 4 9 27.4 3
-2 4 -9 29.6 2.6
-2 -4 9 23.9 3.4
2 -4 -9 30.4 2.9
2 -4 -9 26.3 2.9
2 4 9 27 2.9
3 4 -9 15.6 2.3
-3 -4 -9 21.7 2.8
3 4 -9 16.5 2.3
3 -4 9 21.6 3.3
-3 4 9 20.6 3
-3 -4 -9 21.6 2.1
-3 -4 -9 15.9 2.7
3 -4 9 19.4 3.1
-3 4 9 18.3 2.9
3 4 9 22 2.8
-3 -4 9 21 3.4
-3 4 -9 19.1 2.5
-3 4 -9 20.7 2.4
-3 -4 9 17.1 3
3 4 9 18.6 2.8
3 -4 -9 18.5 2.6
3 -4 -9 18.4 2.6
4 -4 9 46.6 4.4
-4 4 9 45.4 4.2
-4 -4 -9 48.8 4.1
-4 4 9 46.8 4.4
-4 -4 -9 52.89 4.2
4 4 -9 51.29 3.6
4 4 -9 48 3.7
4 -4 9 46.9 4.5
4 4 9 54.39 4.1
4 -4 -9 49.6 4
4 4 9 52.39 4.3
4 4 9 44 4.1
-4 -4 9 45.1 4.3
-4 -4 9 52.29 4.8
-4 4 -9 47.9 3.7
-4 4 -9 45.8 3.6
4 -4 -9 54.29 4
4 -4 -9 51.59 4.2
-5 4 9 102.19 6.4
5 4 -9 111.09 5.3
5 -4 9 126.69 6.8
-5 -4 -9 102.59 6.1
-5 4 9 103.49 6.6
5 -4 9 98.49 6.5
-5 -4 -9 100.89 6.1
5 4 -9 113.59 5.9
-5 4 -9 103.99 5.9
-5 -4 9 106.19 6.7
-5 -4 9 123.59 6.7
5 -4 -9 104.19 5.8
-5 4 -9 105.19 5.6
5 -4 -9 102.69 6
5 4 9 103.29 5.6
5 4 9 106.99 6.5
5 4 9 107.89 6.3
-6 -4 -9 30.8 3.9
-6 4 9 40.9 4.5
6 -4 9 31.3 4.7
6 -4 9 34.7 5.1
-6 4 9 42.8 4.9
-6 -4 -9 37.9 4.4
6 4 -9 34.4 3.7
6 4 -9 33.1 3.8
-6 -4 9 39.4 5
6 4 9 35.6 4.4
6 -4 -9 33.3 3.8
6 4 9 39.7 4.7
6 -4 -9 33.1 4.1
-6 4 -9 37.9 4
-6 4 -9 32.6 3.6
-6 -4 9 31.1 4.1
0 -5 -9 -1.6 1.1
0 5 9 -0.5 1.3
0 5 -9 -0.5 0.8
0 5 -9 -0.2 0.9
0 -5 9 -0.4 1.6
0 5 9 -0.1 1.2
0 -5 -9 -0.9 0.9
-1 5 9 98.89 5.1
1 -5 9 105.29 5.3
1 -5 9 100.89 5.7
-1 5 9 113.89 5.7
-1 -5 -9 98.79 5.4
1 5 -9 106.79 4.9
-1 -5 -9 101.59 4.8
1 5 -9 103.89 4.7
-1 -5 9 100.39 5
-1 -5 9 103.09 5.3
1 -5 -9 105.29 5
-1 -5 9 96.69 5.7
-1 5 -9 113.79 5.2
1 -5 -9 104.79 5.4
1 5 9 107.19 5.5
1 5 9 108.59 5
-2 5 9 93.59 5.4
2 5 -9 89.09 4.6
2 5 -9 78.29 4.3
2 -5 9 96.39 5.4
-2 -5 -9 85.19 3.9
2 -5 9 85.89 5.5
-2 5 9 92.29 5.2
-2 -5 -9 83.39 5.1
2 5 9 95.99 5
2 -5 -9 92.09 4.8
-2 5 -9 84.09 4.3
-2 5 -9 86.89 4.7
-2 -5 9 92.49 5.3
-2 -5 9 85.19 5.6
2 -5 -9 82.99 4.9
2 5 9 92.09 5.1
3 -5 9 41.8 4.2
-3 -5 -9 40.1 3.7
3 5 -9 45.2 3.3
3 -5 9 49 4.4
-3 5 9 46.6 4.2
-3 5 9 46.5 4.2
-3 -5 -9 40 3.8
3 5 -9 46.4 3.5
-3 -5 9 44.5 4.4
3 5 9 39.7 3.7
3 -5 -9 46.8 3.8
3 -5 -9 42.7 3.6
3 5 9 41.1 3.7
-3 -5 9 42.3 4.2
-3 5 -9 43.1 3.4
-3 5 -9 41.2 3.5
-4 5 9 72.59 5.3
4 -5 9 76.39 5.6
-4 -5 -9 70.59 5
-4 5 9 69.59 5.1
4 -5 9 71.29 5.2
4 5 -9 63.59 4.3
-4 -5 -9 71.49 4.9
4 5 -9 68.69 4.1
-4 5 -9 63.59 4.4
-4 -5 9 62.69 5.3
4 -5 -9 66.69 4.6
4 5 9 74.99 5.1
-4 -5 9 69.89 5.4
4 -5 -9 67.29 4.6
-4 5 -9 73.09 4.6
4 5 9 70.79 4.8
5 5 -9 31.5 3.3
5 5 -9 27 3.3
-5 -5 -9 25.9 3.9
5 -5 9 30.3 4.4
-5 5 9 34.6 4.2
5 -5 9 31.8 4.3
5 5 -9 30.7 3
-5 -5 -9 26.3 3.7
-5 5 9 26.4 3.9
5 -5 -9 28.7 3.3
-5 5 -9 28.6 3.5
5 5 9 19.8 3.2
-5 -5 9 31.4 4.1
-5 5 -9 23.3 3.2
5 5 9 25 3.7
-5 -5 9 30.7 4.4
5 -5 -9 27.3 3.5
5 -5 -9 26.7 3.6
6 -5 9 0.6 2.5
6 5 -9 3.7 1.9
-6 -5 -9 2.9 2
-6 5 9 1.3 2
6 5 -9 3.1 1.8
-6 -5 -9 -0.1 1.8
6 -5 9 1.6 2.4
-6 5 9 0.7 1.8
-6 -5 9 1.2 2
6 5 9 0.9 2.1
-6 5 -9 1.4 1.5
6 -5 -9 3 1.9
-6 -5 9 -1 2.1
-6 5 -9 1.5 1.6
6 -5 -9 0.9 1.9
6 5 9 3.1 2.5
6 5 9 1.5 1.8
0 6 9 -0.9 1.2
0 6 -9 -0.4 0.9
0 6 -9 0.2 0.9
0 -6 9 -1.5 1.7
0 -6 -9 1 1.1
0 -6 9 0.2 1.6
0 -6 -9 0.5 1.5
1 -6 9 18.8 3.2
1 -6 9 16.6 3.1
-1 6 9 19.2 3.1
1 6 -9 21.1 2.5
1 6 -9 20.1 2.5
-1 6 9 17.4 2.7
-1 -6 -9 20.3 3
-1 6 -9 21.4 2.6
-1 -6 9 24.7 3.6
1 -6 -9 15.1 2.7
1 -6 -9 22.7 2.7
1 6 9 19.7 2.9
-1 -6 9 23.8 4
-2 6 9 60.29 4.4
2 6 -9 60.69 3.8
2 6 -9 63.19 4
-2 -6 -9 59.69 4.6
-2 6 9 65.69 4.7
2 -6 9 58.39 4.9
2 -6 9 65.59 4.9
2 6 9 56.09 4.3
-2 -6 9 57.19 4.9
-2 -6 9 55.09 4.5
2 -6 -9 61.69 4.1
2 6 9 64.69 4.2
-2 6 -9 58.59 4
2 -6 -9 57.49 4.4
3 6 -9 9.6 2.1
-3 6 9 12.7 2.6
-3 -6 -9 12.5 2.6
-3 6 9 13.4 2.7
3 6 -9 13 2.2
3 6 -9 10 2
3 -6 9 10.4 2.7
-3 -6 -9 9.1 2.3
3 -6 9 15 3.2
3 -6 -9 10.7 2.4
-3 -6 9 11.6 2.7
3 6 9 10.1 2.3
-3 -6 9 10.1 2.6
-3 6 -9 10.2 2.1
-3 6 -9 13.3 2.5
3 6 9 11.3 2.5
3 -6 -9 15.1 2.8
-4 -6 -9 6.4 2.4
4 6 -9 7 1.8
4 -6 9 4.1 2.4
-4 -6 -9 14 3
4 6 -9 10 2.1
-4 6 9 11.3 2.9
4 6 -9 10.8 2.3
-4 6 9 7.1 2.3
4 -6 9 8 2.8
-4 6 -9 9.2 2.4
4 6 9 10.5 2.5
4 -6 -9 11.9 2.7
-4 -6 9 5.9 2.5
4 6 9 17.8 3.2
4 -6 -9 10.3 2.4
-4 -6 9 13.1 3
-4 6 -9 7.2 1.9
5 6 -9 45.7 4
-5 -6 -9 45.3 4.6
5 6 -9 44.1 3.9
5 -6 9 42 4.7
-5 -6 -9 38 4.3
5 -6 9 37.8 5
-5 6 9 32.1 4.3
-5 6 9 39.2 4.3
-5 6 -9 43.4 4
5 6 9 53.39 4.7
-5 6 -9 40.6 4
5 -6 -9 40.5 4.1
-5 -6 9 43.6 5.1
5 -6 -9 40.4 4
5 6 9 37.3 4
-5 -6 9 37.6 4.5
-6 6 9 35.9 4.4
6 6 -9 24.5 3.4
6 -6 9 34.1 4.6
-6 -6 -9 27.2 4
-6 6 9 22.2 4.1
-6 -6 -9 26.8 4.3
6 6 -9 28.5 3.5
6 -6 9 31.4 5.3
6 -6 9 24 4
-6 -6 9 29.3 4.7
6 -6 -9 28.3 3.9
6 6 9 27.4 3.8
6 6 9 21.3 3.8
-6 6 -9 28.5 3.7
6 -6 -9 20 3.7
-6 -6 9 16.9 3.5
-6 6 -9 25.9 3.8
0 -7 -9 -0.6 1
0 -7 9 0.3 2
0 -7 9 0.3 1.6
0 -7 -9 1.7 1.7
0 7 -9 -0.5 0.9
0 7 -9 -0.1 0.9
0 7 9 0.6 1.4
1 7 -9 32.2 3
1 -7 9 29.5 3.8
-1 -7 -9 29.7 3.6
1 -7 9 28.6 4.1
-1 7 9 30 3.2
1 7 -9 26.5 2.8
-1 7 9 32.1 3.6
1 -7 -9 32.3 3.1
-1 7 -9 26.9 2.8
1 -7 -9 29.5 3.5
-1 7 -9 26.6 3
-1 -7 9 33 4.2
1 7 9 28 3.4
2 7 -9 2.9 1.5
-2 7 9 7.2 2.3
2 7 -9 5.6 1.7
2 -7 9 7.8 2.6
-2 -7 -9 4.1 1.9
2 7 -9 5.1 1.6
-2 7 9 6.4 2
2 -7 9 4.4 2.2
-2 -7 9 6.6 2.3
-2 -7 9 6.3 2.5
-2 7 -9 3.4 1.6
2 -7 -9 6.9 2
2 -7 -9 3.8 1.9
2 7 9 4.1 2.1
2 7 9 4.9 1.8
3 7 -9 4.6 1.7
-3 7 9 5.3 2
3 7 -9 6.6 1.8
3 7 -9 6.7 1.7
-3 7 9 6.5 2.3
3 -7 9 6.4 2.5
3 -7 9 6 2.6
3 -7 9 6.7 2.3
-3 -7 -9 6.1 2.1
-3 -7 -9 6.3 2.2
-3 -7 9 7 2.6
3 7 9 6.5 2.1
3 -7 -9 5.6 2
-3 -7 9 6.8 2.5
-3 7 -9 3.8 2.4
3 7 9 4.8 2
3 -7 -9 3.1 1.8
-3 7 -9 5 1.9
4 7 -9 2.9 1.5
-4 -7 -9 1.6 2
4 -7 9 0 2.2
4 -7 9 -0.2 1.8
-4 -7 -9 3.4 2.2
4 7 -9 2.1 1.3
-4 7 9 3.5 1.9
4 -7 9 6.5 2.9
-4 7 9 4.8 2.3
4 -7 -9 3.9 1.8
4 -7 -9 5.2 2.1
4 7 9 1.6 1.7
4 7 9 1.1 1.9
-4 -7 9 -0.2 2.1
-4 -7 9 3.8 2.4
-4 7 -9 -0.7 1.4
-4 7 -9 4.3 1.7
5 -7 9 7.3 3.2
5 -7 9 0.7 2.3
-5 -7 -9 1.1 2.1
-5 -7 -9 -0.2 1.7
-5 7 9 -0.9 1.7
5 7 -9 0.2 1.1
5 7 -9 1.2 1.4
-5 7 9 0.7 2
5 -7 9 -2.6 1.8
5 7 9 -0.2 1.5
5 7 9 -0.8 1.6
5 -7 -9 -1.1 1.5
-5 7 -9 0.5 1.4
-5 -7 9 -0.8 2.2
-5 7 -9 2.6 1.7
-5 -7 9 -2.1 1.9
5 -7 -9 1.8 1.9
0 8 9 -0.2 1.4
0 -8 9 -0.4 2
0 -8 -9 0.7 1.7
0 8 -9 0.1 1.1
0 8 -9 1.1 1.2
0 -8 9 2.8 2
-1 8 9 17.2 3.1
-1 8 9 11.5 2.5
-1 -8 -9 10.3 2.6
1 8 -9 16.1 2.4
1 -8 9 17.5 3.4
1 -8 9 16.2 3.1
1 8 -9 14.2 2.5
1 8 9 17.3 3.1
-1 8 -9 14.5 2.6
-1 -8 9 16.4 3
-1 8 -9 14.9 2.5
1 -8 -9 15.9 2.7
-1 -8 9 11.2 3.1
1 -8 -9 19.3 3.4
2 8 -9 55.39 4.1
2 -8 9 49.6 5.1
2 8 -9 54.39 3.8
2 -8 9 50.09 4.8
-2 8 9 54.39 4.7
-2 8 9 52.69 4.4
2 8 -9 52.09 5.3
-2 -8 -9 48.8 4.5
-2 8 -9 49.6 4.1
-2 8 -9 53.19 4.1
2 -8 -9 49.9 4.5
2 -8 -9 56.69 4.2
-2 -8 9 57.39 5.3
2 8 9 50.69 4.5
3 8 -9 15.5 2.6
3 8 -9 18.4 2.5
-3 8 9 13.6 3
3 -8 9 15.9 3.4
-3 8 9 10.4 2.6
3 -8 9 10.9 3.2
-3 -8 -9 15.1 3.1
3 8 9 14.8 3.2
-3 -8 9 14.8 3.3
3 -8 -9 17.3 3.3
3 8 9 20.4 3.1
3 -8 -9 13.8 2.8
-3 -8 9 12.4 2.9
-3 8 -9 15.1 2.8
-4 8 9 10.6 3.1
-4 8 9 4.3 2.2
-4 -8 -9 11.9 2.9
4 8 -9 10 2.4
4 -8 9 11.9 3.4
4 -8 9 6.7 2.5
4 8 -9 9.6 2.2
-4 -8 -9 14.3 3
4 -8 9 6.5 2.8
-4 -8 9 9.8 3
4 -8 -9 6.9 2.5
4 -8 -9 10.1 2.5
4 8 9 9.3 2.6
-4 8 -9 10.3 2.5
4 8 9 10.3 2.8
-4 8 -9 14.4 2.8
-4 -8 9 14.9 3.7
-5 -8 -9 -0.6 1.8
-5 8 9 0 1.9
-5 8 9 2.9 2
5 8 -9 1.5 1.5
5 -8 9 2.6 3
-5 -8 -9 0.4 2.2
5 8 -9 -0.2 1.4
5 -8 9 -1.7 2.2
5 -8 -9 1.6 1.9
-5 -8 9 0.7 2.3
-5 8 -9 -0.1 1.5
-5 -8 9 1.4 2.4
5 8 9 -0.5 1.8
-5 8 -9 -0.9 1.5
5 8 9 -1.3 1.8
5 -8 -9 3.1 2.2
0 9 9 1.7 1.7
0 9 -9 1.1 1.4
0 -9 9 -2.2 2.2
0 9 -9 -0.7 1.2
0 -9 9 -0.7 1.8
0 -9 -9 2 2
-1 9 9 4.5 1.9
1 -9 9 6.1 2.8
1 9 -9 3.4 1.6
1 -9 9 5.6 2.9
1 9 -9 0.7 1.4
-1 9 9 4.9 2.3
-1 -9 -9 1.1 2
1 -9 -9 2.1 1.6
-1 9 -9 3.3 1.7
-1 9 -9 5.7 1.9
-1 -9 9 4.6 2.6
1 -9 -9 2.4 2
-1 -9 9 4.9 2.5
1 9 9 1.5 1.9
2 9 -9 1.3 1.4
-2 9 9 3.5 2
2 -9 9 1.9 2.6
-2 9 9 1.4 1.8
2 9 -9 5.1 1.9
2 -9 9 2.4 2.6
-2 -9 -9 2.3 2.1
-2 -9 9 6.3 3
2 9 9 3.7 2.1
2 -9 -9 4.6 2
-2 9 -9 3.8 1.9
2 -9 -9 3.8 2.3
-2 9 -9 0.4 1.6
-2 -9 9 3 2.8
3 -9 9 26.5 4.6
-3 -9 -9 28.3 4.1
-3 9 9 16.2 3.2
-3 9 9 22.7 3.8
3 9 -9 27 3.4
3 -9 9 21.6 3.9
3 9 -9 24.8 3
3 9 9 29.4 4.3
-3 9 -9 20 3.2
3 -9 -9 21.4 3.3
3 -9 -9 26.1 4
-3 -9 9 33.4 4.9
4 9 -9 4.6 2
-4 -9 -9 8.8 3
-4 -9 -9 7.1 2.7
4 -9 9 5.4 3.3
-4 9 9 12 3
-4 9 9 9.7 2.8
4 9 -9 13 2.9
4 9 9 9.5 2.7
-4 9 -9 12.5 2.8
-4 -9 9 13.3 3.7
4 9 9 8.3 2.8
4 -9 -9 7 2.4
4 -9 -9 9.3 2.9
0 -10 9 -2.7 2.3
0 -10 -9 -1.7 1.8
0 10 -9 0.8 1.5
0 -10 9 -0.8 2.2
0 10 9 -1.9 1.4
0 10 -9 0.8 1.5
1 -10 9 -0.7 2.5
-1 10 9 3.9 2.2
-1 -10 -9 0.6 1.8
1 10 -9 4.1 1.9
1 10 -9 3.4 1.8
1 -10 9 7.7 3
-1 10 9 3.2 2.2
-1 10 -9 3.9 1.9
1 10 9 2.8 2.3
-1 -10 9 2.4 2.6
-1 -10 9 3.2 2.8
1 -10 -9 3.6 2.4
-1 10 -9 6 2.1
2 -10 9 16.4 3.8
-2 10 9 9.7 2.6
-2 10 9 10.6 3
2 -10 9 21.6 3.7
2 10 -9 10.8 2.5
-2 -10 -9 14 3.3
2 -10 -9 7.9 2.4
-2 -10 9 14.2 3.4
2 -10 -9 12.9 3.2
2 10 9 18.5 3.7
-2 -10 9 11.4 3.3
-2 10 -9 15.7 2.9
-2 10 -9 10.6 2.5
-3 -10 -9 5.8 2.6
3 -10 9 9.5 3.6
-3 10 9 6.8 2.5
-3 10 9 4.8 2.3
3 10 -9 4.7 2
3 10 9 11.4 3.1
3 -10 -9 9 2.5
3 -10 -9 11.2 3.2
-3 -10 9 11.7 3.5
-3 10 -9 7.1 2.5
0 11 -9 -0.9 1.5
0 11 -9 -1.7 1.5
0 11 9 -1.5 1.7
0 -11 9 -1 2.7
0 -11 -9 -0.7 1.9
0 -11 9 -3.1 2.5
1 -11 9 6.1 3
1 -11 9 2.8 3.1
-1 11 9 -0.4 1.8
1 11 -9 2.6 1.9
-1 -11 -9 0.8 2.1
-1 11 -9 4.3 2.1
1 -11 -9 4 2.5
1 11 9 2.7 2.2
-1 -11 9 -0.4 2.8
-1 11 -9 2.5 2
-1 -11 9 1.9 2.8
0 0 -10 13.5 1.8
0 0 10 18.2 2.7
0 0 10 11.7 2.3
0 0 -10 15.1 2.2
0 0 -10 14.9 2.1
1 0 10 2.4 1.3
1 0 -10 0.6 1
-1 0 -10 0.5 1.1
-1 0 10 -1 1.1
1 0 -10 0.5 1
-1 0 10 1.6 1.5
1 0 -10 0.3 1
1 0 10 0.1 1.3
-1 0 -10 0.3 1
2 0 10 235.68 8.6
2 0 10 244.08 8
-2 0 -10 237.98 8.1
2 0 -10 232.28 7.9
-2 0 -10 240.08 7.7
-2 0 10 241.08 8.5
-2 0 10 236.68 8.8
2 0 10 247.18 7.9
2 0 -10 237.38 7.7
3 0 10 1.1 1.4
3 0 10 0.9 1.6
-3 0 10 -1.8 1.4
-3 0 -10 -0.4 1.1
3 0 -10 -1 1
-3 0 10 0.1 1.3
-3 0 -10 1.3 1.2
3 0 -10 -0.4 1
-4 0 10 44.7 4.5
4 0 -10 53.29 4
-4 0 -10 47.5 3.5
-4 0 -10 48.1 4
4 0 10 49.1 4.3
4 0 10 55.49 4.6
4 0 -10 45.5 3.7
-4 0 10 47.4 4
-5 0 -10 -1.9 0.9
-5 0 10 0.2 1.5
-5 0 -10 -1.5 1.2
5 0 -10 1 1.5
5 0 -10 0.7 1.4
5 0 10 -3 1.6
-5 0 10 -2 1.7
5 0 10 -0.7 1.7
6 0 -10 63.59 4.8
6 0 10 79.19 6.2
-6 0 10 69.29 6.1
-6 0 -10 72.09 5.4
6 0 10 73.09 6
6 0 -10 82.99 5.5
0 -1 10 88.99 5
0 -1 -10 84.99 4.3
0 1 -10 83.29 4.3
0 1 -10 86.99 3.7
0 -1 10 77.79 4.5
0 1 10 81.29 4.7
0 1 -10 83.69 4.1
0 -1 -10 83.59 3.7
0 1 10 84.69 4.7
0 -1 -10 73.69 4.1
-1 -1 -10 61.29 3.7
-1 1 10 62.89 4.2
1 -1 10 68.19 4.6
1 1 -10 63.39 3.8
1 1 -10 63.19 3.5
1 -1 10 60.69 3.9
-1 1 10 62.69 4.3
-1 -1 -10 62.89 4
1 1 10 61.49 4
1 -1 -10 60.89 3.7
-1 -1 10 65.99 4.4
-1 1 -10 72.89 4
-1 1 -10 58.39 3.6
-1 -1 10 60.39 4.3
1 1 10 62.29 4.2
1 -1 -10 58.39 3.8
-2 1 10 96.19 5.5
-2 -1 -10 91.19 4.4
2 1 -10 91.09 4.7
-2 -1 -10 95.19 5
-2 1 10 88.29 4.8
2 1 -10 93.09 4.5
2 -1 10 93.19 5.4
2 -1 -10 91.79 4.8
2 1 10 92.29 4.7
2 -1 -10 92.79 4.6
-2 -1 10 81.49 5.2
2 1 10 90.79 4.8
-2 1 -10 98.29 4.7
-2 -1 10 101.19 5.4
-2 1 -10 88.69 4.7
2 1 10 88.39 5.2
2 -1 -10 90.79 4.6
3 1 -10 75.59 4.4
-3 -1 -10 73.99 4.7
3 -1 10 77.89 5.2
3 -1 10 80.09 4.9
-3 1 10 77.99 4.6
-3 1 10 69.19 5.1
3 1 -10 75.99 4.4
-3 -1 -10 77.69 4.1
3 -1 -10 75.79 4.5
3 -1 -10 72.39 4.4
3 1 10 78.49 5.4
-3 -1 10 75.49 5.3
3 1 10 77.99 4.4
-3 -1 10 70.39 4.8
-3 1 -10 68.09 4.1
-3 1 -10 73.99 4.5
3 1 10 73.79 5
4 1 -10 10.4 2.2
-4 1 10 11.6 2.5
-4 1 10 9.1 2.6
4 -1 10 8.3 2.5
-4 -1 -10 6.6 2.1
-4 -1 -10 7.8 1.8
4 1 -10 9.6 2.1
4 -1 10 2.9 2.1
4 -1 -10 6.4 2
-4 1 -10 6.6 1.8
4 -1 -10 8.2 2.2
-4 -1 10 6.7 2.2
4 1 10 9.7 2.6
-4 1 -10 3.3 1.7
-4 -1 10 7.2 2.4
4 1 10 8.1 2.5
5 1 -10 23.3 3
-5 -1 -10 19.6 3.1
5 -1 10 21.8 3.7
-5 -1 -10 17.2 2.4
5 1 -10 26.1 3.2
5 -1 10 25 3.9
-5 1 10 23.2 3.9
5 1 10 20 3.6
5 -1 -10 22.3 3.2
5 1 10 22.7 3.6
5 -1 -10 18 3
-5 1 -10 24.2 2.8
-5 -1 10 24.1 3.3
-5 1 -10 17.6 3
-5 -1 10 23.7 3.9
6 -1 10 26.8 4.3
-6 -1 -10 22 3.5
-6 1 10 24.2 4.3
6 1 -10 21.7 3.4
6 1 -10 19.2 2.9
6 -1 10 22.6 4.1
-6 1 -10 18.7 3.2
6 1 10 20.4 4
-6 -1 10 22.5 4
-6 1 -10 20.3 2.8
6 -1 -10 21.7 3.2
-6 -1 10 12.4 2.8
6 1 10 25.3 4.2
6 -1 -10 25.3 3.6
0 -2 -10 39.9 2.7
0 2 -10 40.4 3.1
0 2 -10 38.9 2.6
0 -2 -10 40.3 3.1
0 -2 10 33.8 3.2
0 -2 10 25.9 3.3
0 2 10 27.8 3.1
0 2 10 27.4 3.1
0 -2 -10 37.3 3.2
-1 -2 -10 68.79 4.3
-1 2 10 77.39 4.6
1 2 -10 65.99 3.6
1 -2 10 70.19 4.7
-1 -2 -10 69.79 3.9
-1 2 10 68.69 4.6
-1 2 10 68.69 4.2
1 2 -10 68.79 4
1 -2 10 84.79 4.6
1 -2 10 76.79 4.2
-1 -2 10 68.69 4.5
1 -2 -10 78.99 4.3
1 -2 -10 66.89 4
-1 2 -10 69.59 4
1 2 10 77.99 4.6
-1 2 -10 66.99 3.8
1 2 10 74.69 4.5
-1 -2 10 72.29 4.8
2 -2 10 121.99 6.3
-2 2 10 110.49 5.3
-2 2 10 112.09 6
-2 -2 -10 110.49 4.9
2 2 -10 110.29 5.2
-2 -2 -10 112.19 5.6
2 2 -10 118.59 5.2
-2 2 10 117.49 6
-2 -2 10 121.99 6.2
2 -2 -10 114.39 5.3
-2 2 -10 123.59 5.4
2 2 10 117.49 6
-2 -2 10 118.19 6
2 2 10 113.49 5.5
2 2 10 108.19 5.7
2 -2 -10 112.59 5.2
-2 2 -10 118.39 5.3
2 -2 -10 107.49 5
-3 -2 -10 14 2.3
-3 2 10 15.1 3
3 2 -10 9.4 2.1
3 2 -10 9.7 2.1
-3 -2 -10 11.5 2
-3 2 10 8.6 2.4
3 -2 10 8.9 2.4
-3 -2 -10 10 2.3
3 -2 10 10.6 2.6
-3 -2 10 11.9 2.8
3 2 10 10.9 2.2
3 -2 -10 12 2.4
-3 -2 10 7.1 2.1
3 2 10 12.6 2.7
-3 2 -10 11.1 2.3
-3 2 -10 5.5 1.7
3 -2 -10 10.8 2.2
-4 2 10 41.3 4.3
-4 -2 -10 42.4 3.8
-4 2 10 36 4.3
4 -2 10 41.6 4.3
4 -2 10 50.79 4.5
4 2 -10 36.9 3.4
4 2 -10 37.6 3.5
-4 -2 -10 41.1 3.3
-4 -2 -10 39.5 3.9
4 2 10 37.6 4.2
-4 -2 10 37.9 4.3
4 -2 -10 43.1 3.8
-4 -2 10 40.2 4
4 2 10 38.2 4.1
4 2 10 45.2 4.3
-4 2 -10 41.6 3.4
-4 2 -10 39.7 3.7
4 -2 -10 39.5 3.6
5 2 -10 10.4 2.4
5 2 -10 7.7 2.1
-5 2 10 7.1 2.5
-5 -2 -10 6.9 2.2
5 -2 10 8.1 2.7
5 -2 10 7 2.5
-5 -2 -10 8.1 2.3
-5 2 10 7.3 2.7
5 -2 -10 6 2.2
-5 2 -10 8.1 2.3
5 2 10 7.2 2.5
-5 -2 10 4.3 2.1
5 -2 -10 7.2 2
-5 2 -10 7.9 2
5 2 10 7.8 2.8
-5 -2 10 4.3 2.4
6 -2 10 21.8 4
6 2 -10 17.3 3.2
-6 2 10 18.8 3.7
-6 2 10 17.7 3.7
-6 -2 -10 14.7 3
6 2 -10 16.9 2.8
-6 -2 -10 21.1 3.6
6 -2 10 24 4.3
6 2 10 16.7 3.8
-6 -2 10 16.6 3.3
6 -2 -10 16.7 3.1
6 -2 -10 20.4 3.4
-6 -2 10 14 3.5
6 2 10 23.7 4.3
-6 2 -10 18.1 3.4
-6 2 -10 13.4 2.6
0 3 10 30.6 3.4
0 -3 10 25.9 3
0 3 10 24.5 2.9
0 -3 -10 34.4 3.8
0 -3 -10 29.7 3
0 -3 -10 29.3 2.8
0 3 -10 25.8 2.6
0 -3 10 24.9 3.4
-1 3 10 7.5 2
1 -3 10 6.2 1.8
1 3 -10 7.4 1.8
-1 3 10 6.7 2
1 -3 10 4.5 2
-1 -3 -10 8.5 1.8
-1 -3 -10 6 1.9
-1 3 10 5.9 1.6
1 3 -10 6.2 1.6
-1 -3 10 4.6 2.1
1 -3 -10 10.5 2.2
-1 3 -10 4.3 1.5
1 3 10 10 2.1
-1 -3 10 7.9 2.2
-1 3 -10 9 1.8
1 -3 -10 8.5 2
1 3 10 5.4 1.9
2 -3 10 22.3 3.8
2 3 -10 25.1 2.7
2 3 -10 19.7 2.4
-2 -3 -10 26.1 3.2
2 -3 10 22.5 3.4
-2 -3 -10 18.6 2.3
-2 3 10 25.6 3.2
-2 3 10 24 3.3
2 3 10 23.9 2.9
-2 3 -10 18 2.5
-2 -3 10 23.2 3.4
2 -3 -10 20.4 2.6
-2 3 -10 22.7 2.6
-2 -3 10 27.5 3.5
2 -3 -10 20.5 2.6
2 3 10 20.1 3
2 -3 -10 20.8 2.6
-3 -3 -10 39.5 3.9
3 -3 10 44.4 4.1
-3 -3 -10 44.6 3.9
-3 3 10 43.1 4.2
-3 3 10 46.7 4.3
3 3 -10 49 3.6
3 -3 10 46.9 4.4
-3 -3 -10 50.69 4.1
3 3 -10 49.9 3.6
-3 3 -10 50.19 3.7
-3 -3 10 50.79 4.5
3 3 10 47 3.8
3 -3 -10 45.9 3.8
3 3 10 42.1 3.9
3 -3 -10 46.8 3.6
-3 3 -10 45.1 3.6
3 -3 -10 45.6 3.8
-3 -3 10 45.6 4.5
-4 -3 -10 17.6 2.9
-4 -3 -10 14.7 2.8
-4 3 10 20.7 3.5
-4 3 10 14 3
4 3 -10 15.6 2.6
4 -3 10 14.6 3.1
4 3 -10 18.9 2.7
4 -3 10 13.5 2.9
4 3 10 16.2 3
-4 3 -10 15.8 2.6
4 -3 -10 19.9 3
-4 -3 10 17.3 3.1
4 3 10 16.2 2.6
-4 -3 10 19.7 3.4
-4 3 -10 18.6 3
4 3 10 16.1 2.9
4 -3 -10 16.6 2.7
-5 -3 -10 2.9 1.8
-5 3 10 0.7 1.9
5 -3 10 3.6 2.4
-5 3 10 4.4 2.1
-5 -3 -10 -0.5 1.4
5 3 -10 2.7 1.6
5 3 -10 1.5 1.4
5 -3 10 1.8 2.3
-5 -3 10 -0.5 2.1
-5 3 -10 2.2 1.6
5 -3 -10 3.9 1.9
-5 -3 10 1 1.9
5 3 10 1.4 2
-5 3 -10 0.8 1.3
5 3 10 1.2 2
5 -3 -10 2.2 1.6
6 -3 10 10.8 3.5
6 3 -10 9.2 2.3
-6 -3 -10 10.2 2.8
-6 3 10 10.5 2.9
6 3 -10 9.1 2.5
-6 3 10 6.9 2.7
6 -3 10 9.2 3.3
-6 -3 -10 10.1 2.8
-6 3 -10 7.4 2.4
6 -3 -10 3.8 2.1
6 -3 -10 6.2 2.3
-6 3 -10 10.4 2.4
-6 -3 10 7.6 2.9
-6 -3 10 11 2.8
6 3 10 6.9 3
6 3 10 6.4 2.9
0 -4 -10 130.39 6.1
0 -4 -10 115.79 5.3
0 -4 10 115.29 6.3
0 4 10 123.99 5.5
0 4 10 121.19 6.1
0 4 -10 123.49 5.5
-1 4 10 3.9 1.9
-1 -4 -10 2.6 1.4
-1 -4 -10 2.2 1.5
1 -4 10 2 1.8
1 4 -10 2.9 1.4
1 4 -10 -0.3 0.9
-1 4 10 2.1 1.5
-1 -4 10 1.8 1.7
1 4 10 1.9 1.5
-1 -4 10 2.3 2
-1 4 -10 1.7 1.2
1 -4 -10 1.5 1.4
1 -4 -10 2.9 1.4
1 4 10 0.3 1.2
-2 4 10 166.58 7.4
2 -4 10 177.58 7.9
-2 4 10 186.68 7.9
-2 -4 -10 189.88 7.7
2 4 -10 182.78 6.8
-2 -4 -10 184.58 6.4
2 4 -10 178.98 6.8
2 -4 10 175.58 7.3
2 4 10 175.38 7.2
-2 4 -10 173.28 6.5
2 -4 -10 182.58 7.1
2 -4 -10 191.28 7.2
2 -4 -10 172.68 7.1
-2 -4 10 181.28 7.7
-2 4 -10 178.48 6.9
2 4 10 182.88 7.4
-2 -4 10 182.38 8
3 4 -10 40 3.4
-3 -4 -10 46.8 4.1
-3 4 10 38.9 4
-3 4 10 34.9 3.9
3 4 -10 43.8 3.4
3 -4 10 40.1 4.4
3 -4 10 42.2 4.3
-3 4 -10 41.9 3.6
3 -4 -10 40.8 3.6
3 -4 -10 33.6 3.5
-3 4 -10 39.8 3.4
-3 -4 10 35.2 4.1
3 4 10 48.3 4.1
3 4 10 34.6 3.6
3 -4 -10 37.6 3.5
-3 -4 10 43.6 4.3
-4 -4 -10 102.09 6
-4 4 10 95.39 6.2
4 -4 10 99.39 6.4
4 -4 10 94.29 6.1
-4 4 10 110.19 6.6
4 4 -10 111.49 5.7
-4 -4 -10 102.09 5.8
4 4 -10 104.09 5.3
4 4 10 99.89 6
-4 -4 10 100.79 6.3
4 -4 -10 99.79 5.6
-4 -4 10 102.69 6.5
4 4 10 96.39 5.5
4 -4 -10 104.69 5.9
-4 4 -10 103.79 5.6
4 4 10 116.29 6.3
4 -4 -10 89.69 5.4
-4 4 -10 95.99 5.4
5 -4 10 7.2 2.9
5 4 -10 4.6 1.9
-5 -4 -10 5.9 2.3
5 -4 10 8.4 2.9
-5 4 10 1.9 2.1
-5 4 10 5.8 2.5
-5 -4 -10 9.9 2.5
5 4 -10 9.2 2.1
5 4 10 12.2 3.1
5 4 10 8 2.4
-5 4 -10 7.4 2.2
5 -4 -10 6.2 2.5
5 4 10 5.5 2.5
5 -4 -10 7.1 2.2
-5 4 -10 4.4 1.9
-5 -4 10 9.1 2.7
-5 -4 10 2.6 2.4
-6 4 10 6.6 3
-6 4 10 3.3 2.1
-6 -4 -10 6.1 2.6
6 4 -10 5.1 2.8
6 4 -10 4.9 2.2
6 -4 10 2.7 2.7
-6 -4 -10 4.2 2.2
6 -4 10 7.5 3.1
6 4 -10 3.1 1.9
-6 -4 10 8.3 2.7
-6 -4 10 7.7 3
6 -4 -10 4.2 2.2
-6 4 -10 4.3 2.1
-6 4 -10 2.1 1.8
6 4 10 3 2.5
6 4 10 3 2.4
6 -4 -10 2.8 2
0 5 -10 9.6 1.9
0 -5 -10 13.8 2.2
0 5 -10 13.8 2.4
0 -5 -10 11.4 2.4
0 -5 10 14.9 3.1
0 5 10 12.2 2.5
1 5 -10 15.8 2.2
-1 5 10 13.8 2.7
-1 -5 -10 17.5 2.9
1 -5 10 15.7 3.1
1 5 -10 14.6 2.3
-1 5 10 14.8 2.6
-1 -5 -10 10.2 2
-1 5 -10 16.2 2.3
-1 -5 10 18.6 3
-1 -5 10 11.1 2.8
1 -5 -10 16.1 2.7
1 -5 -10 16.1 2.6
1 5 10 15.4 2.7
1 5 10 13.3 2.4
-1 5 -10 15.1 2.4
2 -5 10 137.79 7.1
-2 -5 -10 137.29 6.7
-2 5 10 134.79 6.6
-2 5 10 142.89 7
2 -5 10 136.19 6.7
2 5 -10 140.19 6
2 5 -10 142.69 6
2 5 10 144.09 6.4
2 -5 -10 138.49 6.5
2 5 10 145.89 6.8
2 -5 -10 133.69 6.2
-2 5 -10 133.99 6.2
-2 -5 10 141.29 6.9
-2 -5 10 136.99 7.3
-3 -5 -10 15.8 3
3 5 -10 21.3 2.7
3 -5 10 22.3 3.7
3 -5 10 10.9 2.9
3 5 -10 14.3 2.4
-3 5 10 21 3.5
-3 5 10 20.6 3.2
3 -5 -10 17.9 2.9
-3 -5 10 15.9 3.3
-3 -5 10 14.7 3
-3 5 -10 14.6 2.4
3 -5 -10 16.8 2.8
-3 5 -10 16.8 2.7
3 5 10 11.6 2.4
3 5 10 22.1 3.3
4 -5 10 78.79 5.9
-4 -5 -10 70.59 5
-4 5 10 68.09 5.4
4 5 -10 75.89 4.8
4 5 -10 69.69 4.3
4 -5 10 66.49 5.6
-4 -5 -10 69.59 5.3
-4 5 10 67.19 5.3
4 -5 -10 54.89 4.4
4 -5 -10 68.49 5
4 5 10 72.49 5.2
-4 5 -10 65.59 4.6
4 5 10 68.49 5.2
-4 -5 10 77.39 5.9
-4 -5 10 70.09 5.7
4 -5 -10 64.29 4.7
-4 5 -10 62.49 4.5
4 5 10 73.99 5.1
5 -5 10 4.4 2.7
5 5 -10 3.4 1.7
-5 5 10 5.4 2.5
5 5 -10 1 1.6
5 5 -10 8.1 2.1
-5 5 10 2.1 2.3
5 -5 10 1.6 2.4
-5 -5 -10 4 2.1
-5 -5 -10 3.3 2.1
5 -5 -10 4.6 2.2
-5 -5 10 3.4 2.6
5 5 10 3.5 2.2
-5 5 -10 4.1 2
5 -5 -10 2 1.9
-5 5 -10 5.9 2.1
-5 -5 10 2 2.3
5 5 10 5.3 2.3
5 5 10 5.6 2.4
-6 5 10 3.8 2.3
0 6 -10 117.99 5.2
0 6 -10 125.89 5.8
0 -6 10 111.89 6.6
0 -6 -10 124.49 5.5
0 6 10 109.59 6.2
0 -6 -10 123.49 6.4
1 6 -10 2.1 1.2
-1 -6 -10 1.6 1.6
-1 6 10 3.2 1.8
1 -6 10 3.9 1.9
1 -6 10 1.7 2.1
1 6 -10 4.8 1.7
-1 6 10 4 1.7
1 6 10 6.7 2.1
1 -6 -10 5.8 1.8
-1 -6 10 2.8 2.1
1 -6 -10 6.7 2.3
-1 6 -10 6.9 1.9
-2 -6 -10 21.7 3.2
-2 6 10 19.1 3.1
2 -6 10 24.2 3.9
-2 6 10 19.7 3.2
2 6 -10 22.9 2.7
2 6 -10 22.8 2.8
2 -6 10 21.5 3.6
2 6 10 23.9 3.1
2 -6 -10 21.1 3.5
2 6 10 17 3.1
-2 -6 10 23 3.8
-2 6 -10 23.8 3
2 -6 -10 15.2 2.6
-2 -6 10 21.9 3.4
-3 -6 -10 14.6 3
3 -6 10 13.7 3.2
-3 6 10 16.2 3.1
3 6 -10 14 2.5
3 -6 10 11.2 3.1
3 6 -10 13.9 2.4
-3 6 10 12.6 3
3 6 -10 11.5 2.2
-3 -6 10 15.8 3.5
3 -6 -10 12.8 2.8
3 6 10 10.8 2.6
-3 6 -10 11.4 2.4
-3 -6 10 11.8 2.9
3 6 10 12.3 2.8
3 -6 -10 7.9 2.3
4 6 -10 119.89 6.2
-4 6 10 114.19 7.1
4 6 -10 116.49 5.8
-4 6 10 104.69 6.6
-4 -6 -10 114.89 6.7
-4 -6 -10 109.39 7.7
4 -6 10 120.79 7.1
4 6 -10 111.29 5.5
4 -6 10 105.89 7.1
4 6 10 114.79 6.5
4 -6 -10 115.79 6.2
-4 6 -10 115.49 6.1
-4 -6 10 111.79 6.9
-4 6 -10 117.79 6.4
-4 -6 10 114.79 7.2
4 6 10 123.79 6.8
4 -6 -10 105.19 6.2
-5 -6 -10 2.1 1.9
-5 6 10 1.7 2.1
-5 6 10 1.7 2.1
5 -6 10 5.8 3
5 -6 10 -0.6 2.4
5 6 -10 0.5 1.4
5 6 -10 3.4 1.8
-5 -6 -10 1.1 1.9
5 -6 -10 1.8 2.1
-5 -6 10 0.9 2.3
-5 6 -10 3.3 1.9
5 6 10 1.2 2
5 6 10 0 2
-5 6 -10 2 1.7
5 -6 -10 -0.8 1.7
5 -6 -10 3.1 2.2
-5 -6 10 0.9 2.5
0 7 10 74.49 5.3
0 7 -10 81.59 4.5
0 -7 -10 74.79 4.3
0 -7 10 69.19 5
0 7 -10 70.39 4.5
0 -7 10 77.09 5.7
0 -7 -10 82.59 5.6
1 -7 10 2.4 2.6
1 -7 10 3.4 2.1
1 7 -10 1.6 1.3
1 7 -10 2.4 1.4
-1 7 10 1.1 1.8
-1 -7 -10 3.7 2
1 7 10 1.1 1.7
-1 -7 10 3.4 2.4
-1 7 -10 4.2 1.5
-1 7 -10 1.2 1.5
1 -7 -10 1.8 1.5
1 -7 -10 1.1 1.8
2 7 -10 58.89 4.2
2 -7 10 63.09 5.3
-2 -7 -10 58.69 5
-2 7 10 65.69 5
-2 7 10 65.29 5.1
2 7 -10 64.69 4.3
2 -7 10 67.59 5.6
2 7 -10 74.89 4.2
-2 -7 10 69.89 5.7
2 -7 -10 74.19 5.2
2 -7 -10 65.09 4.6
-2 7 -10 65.79 4.6
2 7 10 63.99 5
2 7 10 75.39 4.8
3 7 -10 4 1.7
3 -7 10 4.6 2.8
3 -7 10 3.6 2.6
3 7 -10 2.9 1.5
-3 7 10 4.1 2.3
-3 7 10 6.2 2.5
-3 -7 -10 3.3 2.1
3 7 -10 3.7 1.8
-3 -7 10 3.7 2.3
3 -7 -10 6.5 2.2
3 -7 -10 4.6 2
-3 7 -10 4 1.7
3 7 10 2.8 1.9
3 7 10 7.3 2.5
-3 -7 10 8.9 2.9
4 -7 10 11.5 3.4
4 7 -10 20.3 3.1
4 7 -10 20.7 2.9
-4 7 10 11.6 3.1
4 -7 10 12.6 2.9
-4 -7 -10 16 3.4
-4 7 10 16.5 3.3
4 -7 10 13.1 3.4
4 -7 -10 20.5 3.5
-4 7 -10 21.6 3.3
4 7 10 14.5 3.1
-4 -7 10 11 3.2
4 -7 -10 18.1 3.3
4 7 10 10 2.9
-4 -7 10 11.1 3
-4 7 -10 18.4 3
-5 -7 -10 7.5 2.6
5 -7 10 15.8 3.7
-5 7 10 13.8 3.4
5 -7 10 18.3 4.2
-5 7 10 7 2.8
5 -7 10 12.7 3.1
5 7 -10 10.6 2.5
-5 -7 -10 15.6 3.4
-5 -7 10 13.1 3.5
5 -7 -10 8.2 2.8
-5 7 -10 14.1 3.2
5 7 10 10.4 2.9
-5 7 -10 9.7 2.5
5 7 10 12.9 3.2
5 -7 -10 10.6 2.8
-5 -7 10 10.1 3.1
0 -8 10 46.1 4.5
0 -8 -10 33.8 4.2
0 8 -10 39.9 3.8
0 -8 10 42.7 5
0 8 10 45 4.5
0 8 -10 38.8 3.4
1 8 -10 10.4 2.2
1 -8 10 9.5 2.7
1 8 -10 8.1 2.1
-1 8 10 5.9 2.4
1 -8 10 7.6 3
-1 -8 -10 7.3 2.6
1 -8 -10 3.7 1.7
-1 8 -10 9.8 2.3
1 8 10 11.3 2.7
1 -8 -10 9.9 2.8
-1 8 -10 11.7 2.4
-1 -8 10 9 3.1
2 8 -10 11.8 2.4
-2 -8 -10 10.4 3
-2 8 10 11.9 2.8
2 8 -10 7.7 2
-2 8 10 8.1 2.5
2 -8 10 5.5 3
2 -8 10 11.7 3.2
2 8 10 11.9 2.9
2 -8 -10 12.1 2.6
2 -8 -10 9 2.7
-2 -8 10 10.7 3.3
-2 8 -10 14.4 2.9
3 8 -10 14.3 2.8
-3 -8 -10 13.7 3.3
-3 8 10 6.4 2.5
-3 8 10 8.5 2.7
3 -8 10 12.6 3.3
3 8 -10 8.1 2
3 -8 10 6.7 3.1
3 -8 -10 15.1 3.2
3 8 10 13.5 3.2
-3 8 -10 7.9 2.3
3 8 10 6.4 2.4
3 -8 -10 10.1 2.5
-3 -8 10 10.2 3.3
4 -8 10 23.1 4.1
-4 8 10 22.2 3.9
-4 8 10 22.5 4
4 -8 10 22.5 4.4
-4 -8 -10 25 4
4 8 -10 21.7 3.1
4 8 -10 16.5 3
-4 -8 10 18 3.9
-4 8 -10 21.9 3.5
4 -8 -10 20.6 3.7
4 8 10 24.8 4
4 8 10 14.7 3.3
-4 -8 10 20 3.7
4 -8 -10 28.3 3.9
0 -9 10 22.9 3.9
0 -9 10 13.2 3.6
0 -9 -10 17 3.6
0 9 -10 16.4 2.9
0 9 10 18.7 3.5
0 9 -10 16.9 2.8
1 9 -10 1.3 1.4
-1 -9 -10 -2.6 1.6
1 -9 10 -3.3 2.3
1 9 -10 1.9 1.7
-1 9 10 0.5 1.9
1 -9 10 2.1 2.6
-1 9 -10 -0.3 1.4
1 -9 -10 0 1.9
-1 -9 10 -0.4 2.4
1 9 10 1.7 2
-1 9 -10 3 1.8
2 -9 10 7.7 3
2 9 -10 4.7 2
-2 9 10 10.5 2.8
-2 9 10 7.7 2.7
2 9 -10 4 1.7
2 -9 10 5.8 3
-2 -9 -10 7 2.6
-2 -9 10 7.2 3.2
-2 9 -10 7.4 2.3
2 9 10 3.1 2.2
2 -9 -10 7.7 2.2
2 -9 -10 4.9 2.4
-3 -9 -10 14.6 3.5
-3 9 10 10.5 3.1
-3 9 10 9.8 2.8
3 -9 10 11.3 3.4
3 -9 10 14.8 3.8
3 9 -10 9.9 2.4
3 -9 -10 9.2 2.9
-3 9 -10 10.1 2.6
-3 -9 10 13 3.8
3 9 10 12.5 3.2
3 -9 -10 12.4 3
0 -10 10 6.1 3
0 -10 10 8.1 3.2
0 10 -10 6.4 2.1
0 10 10 8.5 2.7
0 10 -10 9.8 2.6
0 -10 -10 10.4 3.1
-1 -10 -10 6.9 3
1 -10 10 14.5 3.8
-1 10 10 11.4 3.1
1 10 -10 8.4 2.4
1 -10 10 12.9 3.4
1 10 -10 11.1 2.6
1 10 10 3.6 2.3
-1 10 -10 10.1 2.5
-1 10 -10 10.4 2.6
-1 -10 10 12.4 3.7
1 -10 -10 9.3 2.9
0 0 11 3.1 1.6
0 0 11 0.8 1.4
0 0 -11 0.5 1
0 0 -11 0.3 1.1
1 0 11 0.4 1.4
-1 0 -11 0.1 1.1
1 0 -11 0.8 1.2
-1 0 11 0.2 1.4
-1 0 -11 0.1 1.1
-1 0 11 0.7 1.4
1 0 11 -1.2 1.5
2 0 11 145.99 7
-2 0 11 137.99 6.6
-2 0 -11 136.39 5.9
-2 0 11 134.69 6.9
2 0 -11 136.29 5.9
2 0 11 130.79 6
-2 0 -11 146.59 6.4
2 0 -11 133.49 6.1
3 0 11 -0.2 1.5
-3 0 11 0.6 1.8
-3 0 -11 -0.9 0.9
-3 0 -11 0.6 1.3
-3 0 11 -1.5 1.3
3 0 -11 0.9 1.3
3 0 -11 0.8 1.2
4 0 11 27.5 3.9
4 0 -11 30.5 3.3
-4 0 -11 33.7 3.6
-4 0 11 31.8 4.3
4 0 -11 23.4 3.1
-4 0 11 25.8 3.4
4 0 11 29.3 4
-4 0 -11 28.7 3.1
-5 0 11 3.5 2.4
5 0 11 1.8 2.3
5 0 -11 0.1 1.4
-5 0 -11 1.9 1.7
5 0 11 -0.3 1.9
-5 0 -11 -0.2 1.3
5 0 -11 0.6 1.5
-5 0 11 -0.9 1.6
6 0 11 74.59 6.3
-6 0 11 64.09 6.2
-6 0 -11 69.89 5.5
6 0 -11 68.19 5
6 0 -11 68.29 5.3
6 0 11 72.99 6.3
0 -1 11 -0.8 1.3
0 1 11 0.7 1.5
0 1 -11 -0.8 0.9
0 -1 11 0.5 1.6
0 -1 -11 1.3 1.3
0 -1 -11 0.7 1.1
0 1 11 3.2 1.6
-1 -1 -11 43.6 3.6
1 -1 11 46.3 3.7
-1 1 11 44.1 3.8
-1 -1 -11 46.8 3.5
1 1 -11 41.9 3.4
1 1 -11 44.1 3.9
1 -1 11 55.79 4.5
-1 1 11 45.3 4.1
1 -1 -11 45 3.4
1 -1 -11 43.8 3.5
-1 -1 11 51.59 4.3
-1 1 -11 41.4 3.3
1 1 11 45.3 3.8
1 1 11 46.6 4.1
-1 -1 11 45.8 4.1
-1 1 -11 48 3.5
-2 1 11 158.98 6.9
-2 1 11 145.99 7.2
2 1 -11 159.68 6.6
-2 -1 -11 153.88 6.7
2 -1 11 167.98 7.6
2 1 -11 148.59 6.2
-2 -1 -11 160.08 6.3
-2 -1 11 146.59 7
-2 -1 11 160.78 7.5
2 -1 -11 155.08 6.6
2 1 11 149.19 6.5
2 1 11 152.88 7.1
-2 1 -11 158.18 6.6
2 -1 -11 164.98 6.5
-2 1 -11 153.88 6.4
-3 1 11 70.19 4.6
-3 -1 -11 73.79 4.3
3 1 -11 70.79 4.4
3 1 -11 73.29 4.6
3 -1 11 64.79 5.1
-3 -1 -11 70.99 4.9
3 -1 11 63.89 5.1
-3 1 11 62.79 5.1
3 -1 -11 71.89 4.5
-3 -1 11 68.59 5.4
-3 1 -11 68.99 4.3
3 -1 -11 65.39 4.5
-3 -1 11 61.29 4.9
-3 1 -11 70.79 4.6
3 1 11 67.69 5.1
-4 -1 -11 0.8 1.3
4 -1 11 -1.6 1.6
4 1 -11 4.2 1.7
4 1 -11 0.9 1.5
-4 1 11 -0.8 1.5
4 -1 11 5.4 2.5
-4 1 11 3.3 2.1
-4 -1 -11 3.5 1.9
4 1 11 1 1.8
4 -1 -11 0.3 1.4
4 1 11 0.2 1.7
-4 1 -11 0.2 1.3
-4 -1 11 2.5 2.2
4 -1 -11 0.1 1.2
-4 -1 11 -1 1.6
-4 1 -11 1.1 1.3
5 -1 11 66.59 5.7
5 -1 11 65.99 5.8
5 1 -11 69.59 5
5 1 -11 69.29 4.9
-5 1 11 62.09 5.7
-5 -1 -11 68.59 5.2
5 1 11 61.29 5.6
-5 1 -11 60.59 4.3
5 -1 -11 75.39 5.2
5 -1 -11 60.69 4.6
5 1 11 61.39 5.4
-5 -1 11 61.39 5.9
-5 -1 11 68.89 5.2
-5 1 -11 69.59 5.2
-6 1 11 12.4 3.6
6 -1 11 19 3.9
-6 -1 -11 16.9 3.3
6 -1 11 20.3 4.3
6 1 -11 15.3 3
6 1 -11 9.4 2.6
-6 1 -11 11 2.3
-6 -1 11 16.6 3.2
6 1 11 17.2 3.8
-6 1 -11 17.8 3.4
6 -1 -11 13.8 3.1
6 -1 -11 23.4 3.6
-6 -1 11 18.9 3.9
6 1 11 19.5 4
0 2 11 -1.3 1.2
0 2 -11 0.2 1.1
0 -2 -11 0.8 1.3
0 2 11 0 1.3
0 -2 11 -1.2 1.6
0 -2 -11 1.1 1.4
0 -2 11 0.4 1.6
1 2 -11 159.18 6.5
1 2 -11 147.29 5.8
-1 2 11 145.89 7
-1 -2 -11 151.48 6.6
-1 -2 -11 149.79 6.1
-1 2 11 142.39 6.5
1 -2 11 160.78 7.5
1 2 11 150.58 6.8
-1 2 -11 148.29 6
1 -2 -11 152.88 6.4
1 -2 -11 152.88 6.3
-1 2 -11 164.68 6.5
-1 -2 11 163.78 7.4
1 2 11 150.48 6.8
-1 -2 11 137.29 6.7
2 2 -11 0.6 1.2
-2 -2 -11 2.1 1.3
-2 -2 -11 1.1 1.4
-2 2 11 -1.7 1.2
-2 2 11 1.3 1.8
2 -2 11 2.9 2.1
2 2 -11 1.1 1.1
2 -2 -11 1 1.2
-2 2 -11 4.5 1.6
2 2 11 3.6 1.8
2 -2 -11 3.4 1.8
2 2 11 2.4 1.7
-2 2 -11 1.8 1.4
2 -2 -11 1.9 1.5
-2 -2 11 1.5 1.6
-2 -2 11 0.7 1.9
3 -2 11 64.09 4.7
-3 2 11 83.49 5.7
3 2 -11 72.99 4.6
3 -2 11 82.99 5.8
3 2 -11 76.79 4.7
-3 2 11 73.59 5.5
-3 -2 -11 77.39 5.1
-3 -2 -11 79.99 4.3
-3 -2 11 68.69 5.5
-3 2 -11 63.69 4.5
3 2 11 77.89 4.9
-3 2 -11 81.59 4.7
3 -2 -11 76.09 4.7
-3 -2 11 74.99 5.3
3 -2 -11 82.49 4.9
3 2 11 67.49 5.1
4 -2 11 9.3 2.9
-4 2 11 15.2 3.4
4 -2 11 14.2 3.2
-4 -2 -11 12.2 2.8
4 2 -11 14 2.6
-4 -2 -11 14.6 2.3
4 2 -11 16.5 2.8
-4 2 11 16.6 3.4
-4 -2 11 13 2.8
4 -2 -11 14.2 2.8
-4 2 -11 14.3 2.8
4 2 11 14.6 3.1
4 -2 -11 14.2 2.7
-4 2 -11 14.3 2.5
-4 -2 11 12.5 3
4 2 11 17.7 3.4
-5 2 11 30.2 4.6
5 2 -11 37 3.9
5 -2 11 35.8 4.7
5 2 -11 32.2 3.5
-5 -2 -11 31.8 3.9
5 -2 11 38.7 4.8
-5 -2 11 31.7 4.5
-5 2 -11 30.6 3.3
5 -2 -11 25.8 3.6
5 2 11 35.6 4.6
5 -2 -11 32.9 3.9
-5 2 -11 31.2 3.8
5 2 11 29.8 4.4
-5 -2 11 31.8 4.1
0 3 -11 -0.8 0.9
0 -3 11 1.8 1.9
0 -3 -11 1.8 1.3
0 3 11 -0.9 1.3
0 3 -11 0.3 0.9
0 -3 11 1.2 2
0 3 11 -0.3 1.3
0 -3 -11 1.8 1.5
-1 -3 -11 10.1 2.4
1 3 -11 6.7 1.9
1 3 -11 4.5 1.5
-1 -3 -11 8 1.9
-1 3 11 7.6 2
-1 3 11 5.7 2.2
1 -3 11 6 2.2
-1 3 -11 3.6 1.6
-1 -3 11 5.3 2.1
1 3 11 5 1.9
1 3 11 7.6 2.2
1 -3 -11 3.6 1.5
1 -3 -11 5.2 1.9
-1 -3 11 0.9 1.7
-2 -3 -11 51.99 4.3
-2 -3 -11 63.79 3.9
2 3 -11 46.5 3.5
2 -3 11 64.49 5.1
2 3 -11 60.29 4.1
-2 3 11 59.39 4.7
-2 3 11 55.19 4.6
2 -3 -11 55.89 4
2 3 11 49.5 4.2
2 -3 -11 53.69 4
-2 3 -11 52.39 3.8
-2 -3 11 47.8 4.5
-2 -3 11 49.2 4.5
2 -3 -11 53.69 3.9
-2 3 -11 55.29 4
2 3 11 63.29 4.7
-3 -3 -11 23.2 2.6
3 3 -11 28.4 3.2
3 -3 11 30.7 3.7
3 3 -11 24.8 2.9
3 -3 11 19.1 3.5
-3 -3 -11 23.6 3.3
-3 3 11 24.3 3.7
-3 3 11 30 3.8
3 -3 -11 23.6 3
3 3 11 24 3.3
-3 3 -11 29.1 3.3
-3 -3 11 17.8 3.3
3 3 11 23.4 3.4
-3 -3 11 21.1 3.6
3 -3 -11 24.6 3.1
-3 3 -11 24 3
-4 -3 -11 34.4 4
4 3 -11 29.5 3.3
4 3 -11 38.8 3.7
-4 3 11 33.1 4.3
4 -3 11 44.9 4.6
4 -3 11 36.7 4.6
-4 3 11 33.1 4.4
-4 3 -11 36.5 3.7
-4 -3 11 35.4 4.2
-4 3 -11 31 3.4
4 3 11 33.5 3.8
4 -3 -11 37.8 3.9
4 3 11 29.2 4.1
4 -3 -11 35.8 3.8
-4 -3 11 31.7 4.5
4 3 11 40.7 4.3
5 -3 11 -1.5 2.3
5 3 -11 1.8 1.6
-5 3 11 1.9 2.3
-5 -3 -11 2.3 1.9
5 3 -11 2.5 1.7
-5 3 11 1.6 2.1
-5 -3 -11 3.6 2.3
5 -3 11 2.6 2.5
-5 3 -11 2.6 1.7
5 3 11 0.3 2.1
5 3 11 3.8 2.7
-5 3 -11 3.6 1.9
-5 -3 11 1.8 2.6
5 -3 -11 -0.6 1.5
-5 -3 11 2 2
5 -3 -11 2 1.8
0 -4 -11 0.7 1.2
0 4 11 -1.6 1.1
0 4 -11 -0.5 1.1
0 4 11 0.8 1.6
0 -4 -11 -0.7 1.2
0 -4 11 -1.7 1.7
-1 -4 -11 20 2.6
1 4 -11 25.8 2.6
1 -4 11 26.5 4
1 4 -11 26.6 3
-1 4 11 25.8 3.4
-1 -4 -11 21.9 3.2
1 -4 -11 30.1 3.4
1 4 11 26.7 3.3
-1 4 -11 21 2.8
-1 -4 11 24.1 3.8
1 -4 -11 24.9 3
-1 -4 11 23.3 3.5
1 4 11 22.2 3.4
2 4 -11 73.99 4.4
2 -4 11 78.69 6.3
-2 -4 -11 74.49 5.1
-2 4 11 74.09 5.1
-2 4 11 79.69 5.6
2 4 -11 69.29 4.5
-2 -4 -11 73.39 4.2
2 -4 11 81.29 5.8
-2 -4 11 72.69 5.5
2 -4 -11 70.79 4.8
2 -4 -11 78.29 4.7
2 4 11 74.99 5.1
2 -4 -11 72.69 4.6
2 4 11 73.09 5
-2 4 -11 78.39 4.8
-2 -4 11 75.39 5.5
-3 4 11 1.4 1.8
3 -4 11 0.1 1.9
-3 4 11 -1 1.5
3 4 -11 0.1 1.2
-3 -4 -11 -2 1.3
3 4 -11 -0.4 1.1
3 -4 11 0.8 2.2
-3 4 -11 2 1.4
-3 -4 11 1.8 2.2
3 -4 -11 0.4 1.5
3 4 11 1.2 1.7
-3 4 -11 0.3 1.3
-3 -4 11 -1.5 1.8
3 -4 -11 -1.5 1.2
3 -4 -11 1.3 1.6
3 4 11 -0.3 1.5
4 -4 11 6.7 2.6
-4 4 11 3.8 2.2
-4 4 11 -0.4 1.8
-4 -4 -11 1.6 1.8
4 4 -11 -0.8 1.3
4 -4 11 -2.3 2
4 4 -11 2.1 1.6
-4 -4 11 -0.3 1.9
4 4 11 -0.3 1.6
4 -4 -11 -1.1 1.3
4 4 11 2 2
4 4 11 0.1 1.9
-4 4 -11 -0.4 1.3
-4 4 -11 0.6 1.4
-4 -4 11 -0.7 2.1
4 -4 -11 -1.1 1.4
-5 -4 -11 11 2.9
5 -4 11 17.3 3.8
5 4 -11 10.3 2.6
5 -4 11 12.2 3.4
-5 -4 -11 10 2.9
-5 4 11 9.5 3.2
-5 4 11 7.8 2.9
5 4 -11 11.6 2.6
5 -4 -11 9 2.5
5 4 11 7.4 2.7
-5 4 -11 6.5 2.2
5 -4 -11 3.7 2.1
5 4 11 13.8 3.4
-5 -4 11 5.9 2.7
-5 -4 11 9.2 3.1
-5 4 -11 6.1 2.2
0 -5 -11 -1.2 1.2
0 5 -11 -0.3 1.2
0 5 11 -2.5 1.3
0 -5 -11 -0.7 1.5
0 -5 11 -0.5 2
0 5 -11 -0.6 0.9
1 5 -11 26.6 3.1
-1 -5 -11 29.9 3
-1 -5 -11 32.8 3.7
1 -5 11 19.9 3.5
-1 5 11 23.8 3.6
1 5 -11 23.6 2.7
1 5 11 31.7 3.4
-1 5 -11 29.7 3.2
1 -5 -11 26.1 3.1
1 -5 -11 27.8 3.5
-1 -5 11 25.4 4.1
1 5 11 24.4 3.5
-2 -5 -11 5.2 2.2
2 5 -11 6.4 2
2 5 -11 4.5 1.6
2 -5 11 3.2 2.4
-2 5 11 3.4 2
2 -5 11 8.1 2.5
-2 5 11 4 2.3
2 -5 -11 4.1 1.8
2 -5 -11 3.7 1.8
-2 5 -11 5.3 1.9
2 5 11 7.8 2.4
-2 -5 11 4.2 2.2
2 -5 -11 3.4 1.7
2 5 11 4.3 2.1
-2 -5 11 2.8 2.2
3 5 -11 17.6 2.7
3 -5 11 12.7 3.1
3 -5 11 13.2 3.3
-3 -5 -11 11.9 2.9
3 5 -11 14 2.7
-3 5 11 7.1 2.6
-3 5 11 11.1 3
-3 -5 11 16.3 3.2
-3 5 -11 9.8 2.3
3 5 11 15.3 3
3 -5 -11 10.3 2.5
3 5 11 13 2.8
-3 -5 11 11 3
3 -5 -11 10.2 2.6
3 -5 -11 15.4 3
-4 -5 -11 5.7 2.4
4 -5 11 8 3.1
4 5 -11 4.5 1.9
4 5 -11 5.7 2
-4 5 11 6.3 2.5
-4 5 11 5.7 2.4
4 -5 11 6.2 2.8
4 5 11 3.3 2.1
4 5 11 5.6 2.2
-4 5 -11 5.9 2
4 -5 -11 4.6 2.1
4 -5 -11 2.7 2
-4 5 -11 5.9 2.1
4 -5 -11 2.8 2.6
-4 -5 11 1.2 2.4
-4 -5 11 7.7 2.9
-5 -5 -11 -1.1 1.7
5 5 -11 -1.2 1.3
5 -5 11 0.6 2.6
5 5 -11 -1.3 1.3
-5 5 11 -0.2 1.9
5 -5 11 -1.7 2.5
5 5 -11 0.5 1.5
-5 5 11 -1.1 1.8
-5 5 -11 1.1 1.6
5 5 11 -0.4 1.8
5 -5 -11 0.1 1.7
5 5 11 -2.3 1.8
5 5 11 -1.6 2
-5 5 -11 0.1 1.5
-5 -5 11 -1.8 2.5
5 -5 -11 -1.5 1.7
-5 -5 11 -1.4 2.2
0 -6 11 0.9 2.4
0 -6 -11 0.9 1.4
0 6 -11 2.2 1.2
0 6 11 -1.5 1.6
0 -6 -11 -1.6 1.5
0 6 -11 -1.5 1.1
-1 6 11 16.5 3.2
1 6 -11 14.7 2.6
1 -6 11 19.1 3.7
1 6 -11 18.7 2.6
-1 -6 -11 20.1 3.4
-1 -6 -11 20.3 2.7
-1 6 -11 16.5 2.8
1 -6 -11 25.1 3.5
-1 -6 11 19.1 3.6
1 -6 -11 17.8 2.7
1 6 11 16.7 4
1 6 11 18.4 3.3
-2 6 11 26.3 4
-2 -6 -11 29.4 3.9
-2 6 11 24.1 3.5
2 6 -11 22.1 3
2 -6 11 25.8 3.9
2 6 -11 20.2 2.8
2 -6 11 27.7 4.4
2 6 11 26.8 3.8
2 -6 -11 24.9 3.3
2 -6 -11 30.6 3.9
-2 -6 11 30.3 4.4
-2 6 -11 25.1 3.3
2 6 11 23.2 3.4
3 6 -11 53.19 4.1
3 -6 11 59.79 5.6
-3 -6 -11 48.5 4.8
-3 6 11 53.19 5.2
3 6 -11 52.79 4.1
3 -6 11 44.2 5
-3 6 11 38.7 4.4
3 6 11 50.49 4.7
3 -6 -11 47 4.5
-3 -6 11 43.2 5
3 6 11 49.4 4.4
-3 6 -11 42.9 4.1
3 -6 -11 50.29 4.3
-3 -6 11 39.2 5
-4 -6 -11 15.8 3.2
4 -6 11 12.6 3.5
-4 6 11 12.8 3.2
4 6 -11 9.2 2.4
4 6 -11 11.2 2.4
-4 6 11 12.4 3.2
4 -6 11 14.8 3.8
4 6 -11 8.6 2.3
4 -6 -11 9.6 2.6
4 6 11 10.8 2.8
-4 -6 11 15.2 3.7
4 -6 -11 9.7 2.8
4 -6 -11 11.3 2.7
-4 -6 11 18.1 3.7
-4 6 -11 7.3 2.4
4 6 11 5.1 2.3
0 7 11 -0.9 1.6
0 -7 11 1.2 2.3
0 7 -11 -0.3 1.3
0 -7 -11 0.6 1.4
0 7 -11 0 1.1
0 -7 -11 -0.2 1.8
-1 -7 -11 7.3 2.5
-1 7 11 5.7 2.2
1 7 -11 6.7 2
1 7 -11 8.5 2
1 -7 11 8.3 3
1 -7 11 6.9 2.9
-1 -7 11 6 3
-1 7 -11 3.8 2
1 -7 -11 3.7 2.2
1 7 11 5.2 2.3
1 -7 -11 4.1 1.7
2 -7 11 50.09 5.4
2 7 -11 40.5 3.7
-2 -7 -11 47.6 4.8
-2 7 11 39.3 4.4
2 -7 11 33.1 4.5
-2 7 11 40.6 4.4
2 7 -11 42.6 3.8
2 -7 -11 40.3 4.5
-2 7 -11 44.4 4.2
2 -7 -11 35.9 3.9
2 7 11 43.2 4.6
-2 -7 11 50.79 5.4
3 7 -11 44 3.7
3 7 -11 42.7 4
3 7 -11 38.3 3.6
3 -7 11 37.1 5.2
3 -7 11 42.8 5.2
-3 -7 -11 27.1 4.2
-3 7 11 36.9 4.6
-3 7 11 41.8 4.7
3 -7 -11 40.1 4.4
3 7 11 35.5 4.1
3 -7 -11 36.5 4
3 7 11 32.1 4.3
-3 -7 11 47.7 5.4
-3 -7 11 30.7 6.1
-3 7 -11 36.4 4
-4 -7 -11 0.4 1.9
-4 7 11 1.8 2.3
4 -7 11 5.2 3.1
-4 7 11 3.4 2.2
4 -7 -11 2.9 2.2
-4 -7 11 -1.7 2.6
4 7 11 2.7 2.1
4 7 11 1 2.1
-4 -7 11 6.2 3
0 8 11 -2.4 1.7
0 -8 11 1.1 2.7
0 8 -11 0.6 1.6
0 8 -11 1.3 1.3
0 -8 -11 -0.5 1.9
1 -8 11 5.4 2.7
-1 8 11 2.2 2.1
1 8 -11 8.7 2.2
-1 -8 -11 6.7 2.6
1 -8 11 4.4 3
1 8 -11 4.2 1.8
1 8 11 3.1 2.4
-1 -8 11 0.4 2.8
-1 8 -11 3.6 1.9
1 -8 -11 0.3 2
1 -8 -11 1.2 1.5
-2 -8 -11 23.9 4.1
2 -8 11 27.6 4.6
2 -8 11 23.9 4.4
2 8 -11 28.6 3.3
2 8 -11 24.1 3.1
-2 8 11 19.2 3.6
2 -8 -11 29.7 4.1
-2 8 -11 20.1 3.4
-2 -8 11 19 4.1
2 -8 -11 21.9 3.5
2 8 11 20.2 3.6
-3 -8 -11 16.8 3.6
-3 8 11 27.2 4.1
-3 8 11 19.1 3.6
3 8 -11 27 3.7
3 8 -11 23 3.3
3 -8 11 23 4.3
3 -8 11 21.7 4.1
-3 -8 11 26 4.6
3 -8 -11 17.6 3.3
-3 8 -11 14.8 3
3 -8 -11 17.4 3.6
3 8 11 19.8 3.7
0 9 -11 0.4 1.6
0 -9 11 -1.1 2.6
0 9 -11 0.4 1.5
0 9 11 1.4 2.2
0 -9 -11 0.6 2.2
-1 -9 -11 0.8 2.1
-1 9 11 -0.6 1.9
1 -9 11 1.6 2.9
1 9 -11 -0.3 1.3
1 -9 11 -1.4 2.5
1 9 -11 0.4 1.7
-1 9 -11 1 1.7
1 -9 -11 2.7 2.4
-1 -9 11 5 3.2
1 9 11 2.4 2.1
0 0 -12 264.87 8.9
0 0 12 248.78 9.3
0 0 12 254.87 9.6
-1 0 12 -1.2 1.6
1 0 -12 -0.7 1.1
1 0 12 -1.4 1.4
1 0 12 -1.4 1.4
-1 0 -12 -1.6 1
-1 0 -12 0.2 1.2
-1 0 12 -0.4 1.5
-2 0 -12 18.6 2.7
-2 0 12 22.4 3.5
2 0 12 21.3 3.5
2 0 -12 12.6 2.5
-2 0 12 23.1 3.8
-2 0 -12 16.5 2.9
2 0 -12 18.6 2.5
3 0 12 1.5 2
-3 0 12 1.5 1.7
-3 0 12 -0.8 1.9
-3 0 -12 0.9 1.3
-3 0 -12 0.3 1.4
3 0 -12 -0.7 1.2
3 0 -12 -0.7 1.3
-4 0 -12 38.2 4
-4 0 12 39.4 4.2
4 0 -12 39.3 3.9
-4 0 12 48.6 5.2
4 0 -12 40.7 3.9
4 0 12 43.9 5
-4 0 -12 39.5 3.7
5 0 12 0.5 2.3
5 0 12 3.2 2.8
-5 0 -12 1.1 1.4
5 0 -12 0.4 1.5
-5 0 -12 1.1 1.8
-5 0 12 -1.3 2.2
5 0 -12 0.9 1.8
0 -1 12 0.6 1.9
0 1 12 2.9 1.8
0 -1 -12 4.5 1.8
0 -1 -12 3 1.5
0 -1 12 -0.6 1.5
0 1 -12 3.3 1.6
0 1 12 4.8 2.2
-1 -1 -12 5.5 1.9
-1 1 12 0.9 1.8
-1 -1 -12 1.4 1.4
-1 1 12 1.4 1.7
1 -1 12 1.3 2.1
1 1 -12 2 1.4
1 1 12 0.3 1.7
1 1 12 -0.1 1.7
1 -1 -12 1.6 1.5
-1 1 -12 3.6 1.6
-1 1 -12 1.4 1.5
-1 -1 12 0.2 1.7
-1 -1 12 3.7 2.2
-2 1 12 10.2 2.4
2 1 -12 5.9 1.9
-2 -1 -12 9.2 2.3
2 -1 12 14.3 3.1
-2 -1 -12 11.1 2.2
2 1 -12 10.6 2.1
-2 1 12 9.3 2.8
2 -1 -12 11.4 2.2
-2 -1 12 12 2.9
-2 1 -12 10.7 2.3
2 -1 -12 12.1 2.4
-2 -1 12 8.9 2.7
2 1 12 14.4 3
2 1 12 7.7 2.3
-2 1 -12 13.5 2.6
3 -1 12 60.39 5.4
-3 -1 -12 51.69 3.9
-3 -1 -12 58.09 4.7
3 1 -12 61.79 4.5
-3 1 12 50.79 5
3 1 -12 50.69 4.1
-3 1 12 58.09 4.6
-3 1 -12 52.29 4.3
3 1 12 49.7 4.9
-3 1 -12 64.49 4.4
-3 -1 12 47.1 4.6
-3 -1 12 57.39 5.3
3 -1 -12 57.59 4.2
3 -1 -12 56.89 4.4
-4 1 12 19.1 3.8
4 1 -12 11 2.6
-4 -1 -12 6.1 1.9
4 -1 12 13.3 3.4
4 -1 12 10.6 3
-4 -1 -12 11 2.6
4 1 -12 13 2.7
-4 -1 12 9.5 2.9
4 -1 -12 11 2.5
-4 -1 12 15.1 3.5
4 -1 -12 14.3 3
-4 1 -12 11.1 2.4
4 1 12 17.2 3.5
-4 1 -12 12.3 2.7
-5 -1 -12 27.8 3.9
5 -1 12 26.9 4.5
5 -1 12 16.2 3.6
5 1 -12 21.6 3.3
-5 1 12 24.2 4.3
5 1 -12 25.5 3.5
-5 -1 12 21 4.3
-5 1 -12 25.9 3.7
5 1 12 22.8 3.9
-5 1 -12 21.8 3.2
5 -1 -12 22.2 3.4
5 -1 -12 20.3 3.6
-5 -1 12 18.5 3.5
5 1 12 21.5 4
0 2 12 147.89 7
0 -2 -12 154.28 6.6
0 2 12 153.98 7.3
0 -2 -12 145.99 6.6
0 2 -12 153.28 6.7
0 -2 12 144.99 7
0 -2 12 151.88 7.6
-1 -2 -12 24.8 3.2
-1 2 12 19.7 3.1
1 2 -12 23 3
1 -2 12 24.2 3.9
1 2 -12 24.5 3.1
-1 2 12 30.6 3.9
-1 -2 -12 30 3.2
-1 -2 12 28.7 4.3
-1 -2 12 32.3 4
1 -2 -12 28 3.1
1 -2 -12 27.4 3.2
1 2 12 28.9 3.7
1 2 12 31 3.8
-1 2 -12 29.3 3.2
2 2 -12 17.2 2.5
2 2 -12 22.8 3.1
-2 -2 -12 19.4 2.6
2 -2 12 19.4 3.6
-2 2 12 12.8 3
-2 -2 -12 19.8 3.3
-2 2 12 11.2 2.5
2 2 12 21.6 3.5
-2 -2 12 14.8 3.1
2 2 12 12 2.6
-2 2 -12 18.5 2.8
2 -2 -12 19.8 3
2 -2 -12 14 2.5
-2 -2 12 18.9 3.4
-2 2 -12 10.4 2.3
3 2 -12 45.1 3.8
-3 2 12 27.5 4.4
-3 -2 -12 41.4 4.3
3 2 -12 39.6 3.8
3 -2 12 38.6 4.8
-3 -2 -12 38.9 3.4
-3 -2 12 44.7 4.7
-3 2 -12 39.1 3.7
-3 -2 12 39.5 4.8
-3 2 -12 40.8 3.9
3 -2 -12 39.2 3.9
3 2 12 45.6 4.8
3 -2 -12 43.3 3.8
4 2 -12 3.9 1.9
4 -2 12 7.6 2.7
-4 2 12 8 2.8
4 -2 12 6.7 2.8
4 2 -12 9 2.4
-4 -2 -12 10.9 2.8
4 2 12 6.3 2.6
-4 2 -12 9.5 2.5
4 -2 -12 7.9 2.4
-4 2 -12 5.7 2
-4 -2 12 8.6 3
-4 -2 12 4 2.3
4 -2 -12 4.8 2
-5 -2 -12 33.1 4.2
5 -2 12 31.9 5
5 2 -12 31.3 3.8
5 2 -12 32.8 3.9
-5 2 12 34.4 5
5 -2 12 32.3 4.9
5 2 12 39.7 5
5 -2 -12 40.6 4.1
5 2 12 34.4 4.8
5 -2 -12 40.3 4.3
-5 2 -12 32.6 4
-5 -2 12 36.1 4.5
-5 2 -12 25.8 3.4
-5 -2 12 45.2 5.5
0 -3 12 46.5 4.7
0 3 12 52.59 4.6
0 3 -12 55.89 4.2
0 3 12 56.09 4.4
0 -3 -12 58.19 4.1
0 -3 -12 56.99 4.4
1 -3 12 96.89 6.3
-1 -3 -12 104.89 5.9
1 3 -12 98.39 5.5
1 3 -12 95.89 4.9
-1 -3 -12 95.19 5.1
-1 3 12 113.49 6.6
-1 3 12 107.79 5.8
1 3 12 109.79 6.1
-1 3 -12 100.49 5.5
1 -3 -12 115.79 5.8
1 -3 -12 107.79 5.8
-1 -3 12 103.19 6.1
-1 -3 12 93.79 6.3
1 3 12 101.49 6.1
-2 -3 -12 19.6 3.3
2 -3 12 16.3 3.4
-2 3 12 22.1 4
-2 3 12 18.8 3.4
2 3 -12 22.8 3.1
2 3 -12 17.4 2.6
-2 -3 -12 13.3 2.4
2 3 12 16.6 3.2
-2 -3 12 16.6 3.3
-2 -3 12 20.6 3.6
2 -3 -12 15.9 2.6
2 -3 -12 24.4 3.1
-2 3 -12 20.3 3
2 3 12 20.2 3.3
-3 3 12 124.99 7.3
-3 -3 -12 122.19 5.7
-3 3 12 126.49 7.5
-3 -3 -12 134.29 7.1
3 3 -12 121.19 6.1
3 -3 12 146.09 7.9
3 3 -12 140.59 6.6
3 3 12 135.59 7.3
3 3 12 132.19 6.8
3 -3 -12 129.39 6.5
3 -3 -12 123.49 6.3
-3 3 -12 142.09 6.8
-3 -3 12 137.29 7.7
-3 3 -12 130.09 6.4
-3 -3 12 134.79 7.5
4 3 -12 5.5 2.1
4 3 -12 6.3 2.1
-4 -3 -12 5.1 2.3
-4 3 12 6.5 2.6
-4 3 12 3.4 2.6
4 -3 12 3.8 2.5
4 -3 12 6.4 3
-4 -3 12 6 3
-4 3 -12 6.2 2.2
4 3 12 4.9 2.5
-4 -3 12 4.3 2.4
-4 3 -12 3.2 1.8
4 -3 -12 4.8 2
4 -3 -12 6.2 2.2
0 4 12 107.19 5.8
0 -4 -12 113.69 5.7
0 -4 -12 101.79 6
0 4 12 110.69 6.5
0 -4 12 114.29 6.9
0 4 -12 107.39 5.7
-1 -4 -12 6 2.2
1 4 -12 7.3 1.9
-1 4 12 5.2 2.3
1 4 -12 7.3 2.2
-1 -4 -12 10.2 2.1
1 -4 12 5.2 2.6
1 -4 -12 4.1 1.8
1 -4 -12 3.3 1.8
-1 4 -12 3.2 1.7
1 4 12 6.5 2.4
1 4 12 3.3 1.9
-1 -4 12 8.4 2.8
2 4 -12 22 3
-2 -4 -12 13.9 2.5
2 4 -12 22.5 2.8
-2 -4 -12 14.5 3.1
-2 4 12 24.4 4
2 -4 12 19.7 3.7
-2 -4 12 19.2 3.5
-2 -4 12 26.2 4.2
-2 4 -12 19.3 3
2 4 12 22.6 3.6
2 -4 -12 29.3 3.3
2 4 12 24.6 3.8
2 -4 -12 20.6 3.2
2 -4 -12 20.5 3.2
-3 -4 -12 2.8 1.9
-3 4 12 5.9 2.5
-3 4 12 2.8 2.3
3 4 -12 5.3 1.8
3 4 -12 4.5 1.8
3 -4 12 2.7 2.7
3 4 12 8.3 2.6
-3 4 -12 5.8 2.1
3 4 12 6.5 2.6
-3 -4 12 7.6 2.7
-3 -4 12 7.4 2.9
3 -4 -12 6.2 2.2
3 -4 -12 6.5 2.1
4 -4 12 2.7 2.8
-4 4 12 0.7 2.2
4 -4 12 6.5 2.9
4 4 -12 0.4 1.5
-4 4 12 1.2 2.2
-4 -4 -12 2.1 2.1
4 4 -12 1.3 1.7
-4 4 -12 0 1.4
-4 -4 12 3.5 2.5
4 4 12 1.8 2
4 -4 -12 -0.1 1.6
4 4 12 -1.5 1.7
-4 4 -12 1.2 1.6
-4 -4 12 2 2.3
4 -4 -12 1.5 1.8
0 -5 -12 1.5 1.8
0 5 12 -0.6 1.8
0 -5 12 0.3 2.3
0 5 -12 0.7 1.5
0 -5 -12 2.5 1.5
-1 5 12 32.1 4.2
-1 -5 -12 28 3.9
1 5 -12 39.7 3.7
1 -5 12 39.3 4.9
1 5 -12 36.8 3.3
-1 -5 -12 35.5 3.5
1 -5 -12 33.1 4
-1 -5 12 30.5 4.5
1 5 12 36.2 4.3
1 -5 -12 46.1 3.9
1 5 12 28.1 3.6
-1 5 -12 30.5 3.5
-2 -5 -12 21.2 3.6
2 5 -12 19.7 3.1
-2 5 12 18.6 3.7
2 -5 12 17.6 3.8
2 5 -12 20.7 2.8
2 -5 -12 22.7 3.3
2 5 12 11.7 2.9
2 -5 -12 19.1 3.3
2 -5 -12 14.8 2.7
-2 -5 12 29.8 4.7
-2 5 -12 14.8 2.9
2 5 12 18.1 3.3
-3 5 12 66.39 5.5
3 5 -12 71.49 4.8
3 -5 12 73.49 6.1
-3 5 12 65.39 5.8
3 5 -12 62.49 4.6
-3 -5 -12 78.89 5.8
3 -5 12 67.89 6.3
3 -5 -12 66.69 5.1
3 -5 -12 60.99 5.1
3 5 12 72.99 5.5
-3 -5 12 74.19 6.1
3 5 12 70.89 5.5
3 -5 -12 64.49 5
-3 -5 12 68.99 5.9
-3 5 -12 65.79 4.9
-4 5 12 20.5 3.8
4 -5 12 17.4 3.7
4 5 -12 16.2 3
4 5 -12 17.8 3
4 -5 12 27.9 4.6
-4 -5 -12 14.4 3.2
-4 5 12 18.7 3.9
-4 -5 12 24.1 4.3
4 5 12 17.1 3.3
4 -5 -12 15.7 3.2
-4 5 -12 13.7 2.9
4 -5 -12 19.7 3.7
4 5 12 17.6 3.5
-4 -5 12 15.8 3.6
0 -6 -12 2.6 2
0 6 -12 2 1.6
0 -6 -12 4.4 1.8
0 6 12 3.6 2.1
0 -6 12 3 2.7
1 -6 12 31.2 4.8
1 6 -12 28.6 3.5
-1 -6 -12 29.8 4.1
1 6 -12 24.7 3
-1 6 12 31.5 4.3
1 -6 -12 31.1 3.5
-1 -6 12 37.3 4.9
1 -6 -12 25.1 3.8
-1 6 -12 25.9 3.4
1 6 12 29.8 4.3
2 -6 12 -1.1 2.5
2 6 -12 0.5 1.4
2 6 -12 -0.2 1.4
-2 -6 -12 -0.9 1.9
-2 6 12 0.9 2
-2 -6 12 2.6 2.7
2 6 12 3.6 2.3
2 -6 -12 1 2.3
2 -6 -12 0.9 1.9
2 6 12 -0.1 1.8
2 -6 -12 3.6 2
-2 6 -12 -1.6 1.2
-3 -6 -12 1.9 2.2
3 -6 12 4.5 2.8
-3 6 12 9.6 3
3 6 -12 7.1 2.2
3 -6 12 6.2 3
3 6 -12 6.2 2.1
-3 6 12 6 2.6
3 -6 -12 3.9 2.2
-3 6 -12 9.2 2.6
3 -6 -12 6.6 2.4
3 -6 -12 7.8 2.8
3 6 12 6.3 2.6
-3 -6 12 1.3 2.6
3 6 12 10.2 2.7
-3 -6 12 5.3 3
0 7 -12 10.3 2.4
0 7 12 8.6 2.9
0 -7 12 8 3.1
0 -7 -12 8.5 2.8
-1 -7 -12 5 2.4
1 -7 12 7.6 3
-1 7 12 1.5 2.2
1 7 -12 7.6 2.1
1 7 -12 5.7 2
1 -7 -12 4.8 2.1
1 7 12 9.2 3.1
-1 -7 12 14.3 3.6
1 -7 -12 6.6 2.6
-1 7 -12 2.2 1.9
-2 -7 -12 9.8 3
2 7 -12 6.2 2
2 -7 12 2 2.8
2 7 -12 8.7 2.4
-2 7 12 9.3 3
-2 -7 12 10.5 3.5
-2 7 -12 9.9 2.7
2 7 12 6.7 2.7
2 -7 -12 11.2 2.6
2 -7 -12 9.4 2.9
0 0 13 1.4 1.9
0 0 -13 -0.2 1.4
0 0 13 0.9 2
-1 0 13 -0.7 1.6
1 0 -13 -0.3 1.3
-1 0 13 -2.9 1.8
1 0 13 0.5 1.8
-1 0 -13 -0.1 1.3
-2 0 -13 33.6 3.6
2 0 -13 36.7 3.5
-2 0 13 28.3 4.1
2 0 -13 41.3 4
-2 0 13 41.3 4.8
-2 0 -13 37.5 3.9
2 0 13 35.4 4.6
-3 0 13 0.2 2
-3 0 13 0.9 2.2
3 0 13 0.1 2
3 0 -13 2.4 1.7
-3 0 -13 -1.3 1.2
3 0 -13 -1 1.1
-3 0 -13 0.7 1.6
-4 0 -13 32.1 4
-4 0 -13 43.9 4.1
-4 0 13 31.5 4.3
4 0 -13 37.7 3.9
4 0 -13 33.7 4
4 0 13 35.6 4.9
-4 0 13 36.8 5.1
0 1 13 -1.4 1.6
0 -1 13 -0.3 1.9
0 -1 13 -1.5 1.7
0 -1 -13 -0.3 1.2
0 1 13 1.5 2
0 1 -13 0.4 1.3
-1 -1 -13 9.2 2.3
-1 1 13 8 2.6
-1 1 13 9.1 2.6
1 1 -13 9.2 2.3
1 -1 13 6.4 2.7
-1 -1 -13 7.4 2.3
-1 1 -13 6.2 2
1 1 13 13.3 2.9
1 -1 -13 8.3 2.3
-1 -1 13 7.3 2.7
1 1 13 11.7 2.9
-1 -1 13 6.1 2.4
-2 1 13 29.4 4.4
2 1 -13 21 2.8
-2 -1 -13 29.8 3.7
-2 -1 -13 26.8 3.2
2 1 -13 22.7 3.2
2 -1 13 28 4.4
-2 1 13 19.8 3.4
-2 -1 13 23.2 3.9
-2 1 -13 22.2 3.1
-2 -1 13 22 3.6
2 -1 -13 32.2 3.6
-2 1 -13 20.7 3.1
2 1 13 27.6 4.3
3 1 -13 65.79 4.7
3 1 -13 59.09 4.8
3 -1 13 54.29 5.6
-3 1 13 57.09 5
-3 1 13 66.99 6.1
-3 -1 -13 60.89 4.4
-3 -1 -13 57.09 4.8
-3 -1 13 50.69 5.2
-3 1 -13 58.09 4.5
3 -1 -13 64.49 4.9
3 1 13 63.99 5.6
3 -1 -13 57.39 4.5
-3 -1 13 61.09 5.7
-3 1 -13 51.79 4.5
-4 1 13 5.6 3.1
-4 -1 13 -1.9 2.3
0 2 13 -0.3 1.8
0 2 13 0.8 1.7
0 -2 -13 -0.1 1.5
0 -2 13 -0.2 2
0 -2 -13 -0.2 1.3
0 2 -13 -1.3 1.3
-1 -2 -13 36.6 3.9
-1 2 13 34.6 4.5
-1 2 13 37.7 4.1
1 2 -13 39.6 3.8
1 -2 13 42.6 4.8
-1 -2 -13 37.1 3.6
1 2 13 38.6 4.3
-1 2 -13 31.8 3.6
1 2 13 36.9 4.3
-1 -2 13 33.7 4.5
-1 -2 13 38.8 4.7
1 -2 -13 34.6 3.7
-2 2 13 12.7 3.2
-2 -2 -13 13.9 2.7
2 2 -13 10.3 2.4
2 2 -13 9.9 2.3
-2 2 13 13.9 2.9
-2 -2 -13 9.4 2.4
2 -2 13 12 3.2
-2 -2 13 10.6 2.9
2 2 13 10 2.8
-2 2 -13 10.4 2.6
-2 -2 13 8 2.9
2 2 13 8.6 2.7
2 -2 -13 11 2.5
-3 -2 -13 3 2.2
3 2 -13 2.4 1.8
-3 -2 -13 6.2 2
-3 2 13 1.8 2.4
3 2 -13 7 2.1
3 -2 13 8.8 3.3
3 -2 -13 6.1 2.1
-3 2 -13 5.6 2
3 -2 -13 6.5 2.3
3 2 13 7.8 2.8
-3 -2 13 5.6 2.7
-3 2 -13 4 2.1
-3 -2 13 4.2 2.6
0 -3 13 1.2 2.2
0 3 -13 0.3 1.4
0 -3 -13 0 1.5
0 -3 -13 0.1 1.4
0 3 13 -0.9 1.8
0 3 13 4 2.1
-1 -3 -13 12.2 2.5
-1 3 13 15.6 3.4
1 3 -13 11.9 2.7
-1 -3 -13 16.7 3.1
-1 3 13 13.3 2.9
1 -3 13 17.6 3.8
1 3 13 15.7 3.2
1 -3 -13 11.2 2.9
1 3 13 11.2 2.8
1 -3 -13 19.4 3.1
-1 3 -13 16.5 2.9
-1 -3 13 19.1 3.8
-2 -3 -13 10.6 2.6
-2 -3 -13 15.3 2.7
2 -3 13 21.5 4.1
2 3 -13 10.8 2.6
2 3 -13 13.4 2.5
-2 3 13 15.7 3.6
-2 -3 13 20.5 3.9
2 3 13 12 2.9
2 3 13 13.5 3.2
2 -3 -13 7 2.4
-2 3 -13 15.7 3
-2 -3 13 15.1 3.5
-3 -3 -13 10.9 2.9
-3 3 13 15.7 3.7
3 3 -13 17.3 3
3 3 -13 16.7 3
3 -3 13 21.6 4.1
3 3 13 19.8 3.6
-3 -3 13 14.7 3.7
-3 -3 13 18.7 3.7
-3 3 -13 14.6 3.1
3 -3 -13 19.1 3.1
3 -3 -13 13.6 2.8
0 -4 -13 1.1 1.9
0 4 -13 0.7 1.6
0 -4 13 0.3 2.3
0 -4 -13 1.2 1.4
0 4 13 0 1.8
0 4 13 1.8 2
-1 -4 -13 65.39 4.6
1 4 -13 71.39 5
-1 -4 -13 71.29 5.5
-1 4 13 77.89 6.1
1 -4 13 72.39 6.2
-1 -4 13 61.69 6
1 4 13 73.39 5.5
1 -4 -13 68.89 5.1
1 -4 -13 76.69 5.1
1 4 13 67.09 5.6
-1 4 -13 75.09 5.2
2 4 -13 27.5 3.3
-2 -4 -13 44.4 4.7
2 4 -13 35.1 3.9
2 -4 13 35.9 5
-2 -4 -13 34.1 3.6
-2 4 13 30 4.6
2 -4 -13 42.1 4.2
2 4 13 43.4 4.6
-2 4 -13 33 3.7
-2 -4 13 38.7 6.3
2 4 13 32.8 4.5
-2 -4 13 32.7 4.8
3 4 -13 4.6 1.9
-3 -4 -13 4.2 2.2
3 -4 13 7 3.1
3 4 -13 3.4 2
-3 4 13 0.8 2.2
3 4 13 3.2 2.4
-3 -4 13 5 2.9
3 -4 -13 4 2
-3 4 -13 4.9 2.2
3 -4 -13 3.3 2
3 4 13 6.4 2.7
-3 -4 13 4.1 2.8
0 -5 13 3.6 2.6
0 5 -13 0 1.6
0 -5 -13 -1.7 1.4
0 5 13 -2 2
0 -5 -13 1 1.9
-1 -5 -13 2 2
-1 5 13 5.1 2.6
1 5 -13 2.1 1.8
1 -5 13 0.1 2.5
-1 -5 -13 3.3 1.7
-1 5 -13 3.6 2
1 -5 -13 3.3 2.1
1 -5 -13 2.9 2
1 5 13 4.5 3.3
1 5 13 4.6 2.4
-1 -5 13 1.1 2.5
-2 -5 -13 59.29 5.4
-2 5 13 55.79 5.6
2 -5 13 52.09 5.8
2 5 -13 54.49 4.3
2 5 -13 54.79 4.5
2 5 13 53.39 5.1
-2 5 -13 53.49 4.8
2 -5 -13 55.59 5
-2 -5 13 62.59 6.2
2 5 13 53.99 5.3
2 -5 -13 55.19 4.7
0 -6 13 -0.3 2.6
0 6 -13 -0.2 1.5
0 6 13 2 2.3
0 -6 -13 1.2 2
0 -6 -13 0.2 1.7
-1 6 13 1.7 2.4
1 6 13 2.8 2.3
0 0 14 73.89 5.8
0 0 -14 77.49 5.2
0 0 14 73.79 5.9
1 0 14 -0.8 2
-1 0 -14 0.5 1.6
-1 0 14 0.2 2.2
1 0 -14 -0.6 1.4
-1 0 14 -1.7 1.9
2 0 -14 9.8 2.7
2 0 14 8.8 3
-2 0 -14 8.5 2.4
-2 0 14 6.7 2.8
-2 0 14 2.3 2.6
0 1 14 3.5 2.5
0 1 -14 2.7 1.9
0 1 14 3.6 2.3
0 -1 14 5.9 2.7
0 -1 -14 0.8 1.6
-1 -1 -14 8.4 2.3
1 1 -14 7.1 2.2
-1 1 14 5.8 2.5
1 -1 14 7.7 2.9
-1 1 14 9.8 3
-1 -1 14 8 3.1
1 1 14 14.9 3.4
-1 1 -14 5.6 2
1 -1 -14 6.8 2.2
-1 -1 14 6.8 3
-2 1 14 11.7 3.3
-2 1 14 6.9 2.8
-2 -1 -14 11.5 2.9
2 -1 14 8.3 3
2 1 14 8.2 3
-2 -1 14 11.4 3.1
-2 -1 14 12.9 3.4
0 -2 -14 0.5 1.5
0 2 14 0.3 2.1
0 2 -14 5 1.9
0 -2 14 0.8 2.4
0 2 14 5.6 2.4
1 2 -14 14.6 3
-1 2 14 9.7 3
-1 -2 -14 11.8 2.8
-1 -2 -14 11.6 2.7
1 -2 14 11 3.4
-1 2 14 10.6 2.9
1 2 14 12.9 3.2
1 -2 -14 13 2.8
-1 2 -14 16.3 3.1
1 2 14 9.9 3
-1 -2 14 11.3 3.1
0 3 14 10.6 3
0 -3 -14 15.4 3.2
0 -3 -14 9.7 2.5
0 -3 14 12.9 3.5
0 3 -14 9.7 2.6
0 3 14 12.7 3.1
